<routes xmlns:xsi="http://www.w3.org/2001/XMLSchema-instance" xsi:noNamespaceSchemaLocation="http://sumo.dlr.de/xsd/routes_file.xsd">
            <vType id="SUMO_DEFAULT_TYPE" accel="0.8" decel="4.5" sigma="0" length="5" minGap="2" maxSpeed="70"/>
            <route id= "LE1LE2" edges="LE1LJ1 LJ1LE2"/>
            <route id= "LE1LE3" edges="LE1LJ1 LJ1LE3"/>
            <route id= "LE1LE4" edges="LE1LJ1 LJ1LE4"/>
            <route id= "LE2LE1" edges="LE2LJ1 LJ1LE1"/>
            <route id= "LE2LE3" edges="LE2LJ1 LJ1LE3"/>
            <route id= "LE2LE4" edges="LE2LJ1 LJ1LE4"/>
            <route id= "LE3LE1" edges="LE3LJ1 LJ1LE1"/>
            <route id= "LE3LE2" edges="LE3LJ1 LJ1LE2"/>
            <route id= "LE3LE4" edges="LE3LJ1 LJ1LE4"/>
            <route id= "LE4LE1" edges="LE4LJ1 LJ1LE1"/>
            <route id= "LE4LE2" edges="LE4LJ1 LJ1LE2"/>
            <route id= "LE4LE3" edges="LE4LJ1 LJ1LE3"/>
          
    <vehicle id="LE2LE4_0_0" type="SUMO_DEFAULT_TYPE" route="LE2LE4" depart="0" />
    <vehicle id="LE3LE1_1_0" type="SUMO_DEFAULT_TYPE" route="LE3LE1" depart="0" />
    <vehicle id="LE3LE1_2_1" type="SUMO_DEFAULT_TYPE" route="LE3LE1" depart="0" />
    <vehicle id="LE1LE4_3_0" type="SUMO_DEFAULT_TYPE" route="LE1LE4" depart="1" />
    <vehicle id="LE1LE3_4_1" type="SUMO_DEFAULT_TYPE" route="LE1LE3" depart="1" />
    <vehicle id="LE2LE1_5_0" type="SUMO_DEFAULT_TYPE" route="LE2LE1" depart="1" />
    <vehicle id="LE2LE1_6_1" type="SUMO_DEFAULT_TYPE" route="LE2LE1" depart="1" />
    <vehicle id="LE3LE1_7_0" type="SUMO_DEFAULT_TYPE" route="LE3LE1" depart="3" />
    <vehicle id="LE4LE3_8_0" type="SUMO_DEFAULT_TYPE" route="LE4LE3" depart="3" />
    <vehicle id="LE3LE1_9_0" type="SUMO_DEFAULT_TYPE" route="LE3LE1" depart="4" />
    <vehicle id="LE1LE4_10_0" type="SUMO_DEFAULT_TYPE" route="LE1LE4" depart="5" />
    <vehicle id="LE2LE4_11_0" type="SUMO_DEFAULT_TYPE" route="LE2LE4" depart="5" />
    <vehicle id="LE3LE4_12_0" type="SUMO_DEFAULT_TYPE" route="LE3LE4" depart="5" />
    <vehicle id="LE1LE2_13_0" type="SUMO_DEFAULT_TYPE" route="LE1LE2" depart="6" />
    <vehicle id="LE2LE4_14_0" type="SUMO_DEFAULT_TYPE" route="LE2LE4" depart="6" />
    <vehicle id="LE2LE3_15_1" type="SUMO_DEFAULT_TYPE" route="LE2LE3" depart="6" />
    <vehicle id="LE2LE1_16_2" type="SUMO_DEFAULT_TYPE" route="LE2LE1" depart="6" />
    <vehicle id="LE3LE1_17_0" type="SUMO_DEFAULT_TYPE" route="LE3LE1" depart="6" />
    <vehicle id="LE4LE1_18_0" type="SUMO_DEFAULT_TYPE" route="LE4LE1" depart="6" />
    <vehicle id="LE1LE2_19_0" type="SUMO_DEFAULT_TYPE" route="LE1LE2" depart="7" />
    <vehicle id="LE1LE2_20_1" type="SUMO_DEFAULT_TYPE" route="LE1LE2" depart="7" />
    <vehicle id="LE2LE4_21_0" type="SUMO_DEFAULT_TYPE" route="LE2LE4" depart="7" />
    <vehicle id="LE3LE4_22_0" type="SUMO_DEFAULT_TYPE" route="LE3LE4" depart="7" />
    <vehicle id="LE3LE1_23_1" type="SUMO_DEFAULT_TYPE" route="LE3LE1" depart="7" />
    <vehicle id="LE3LE4_24_2" type="SUMO_DEFAULT_TYPE" route="LE3LE4" depart="7" />
    <vehicle id="LE4LE1_25_0" type="SUMO_DEFAULT_TYPE" route="LE4LE1" depart="7" />
    <vehicle id="LE2LE4_26_0" type="SUMO_DEFAULT_TYPE" route="LE2LE4" depart="8" />
    <vehicle id="LE2LE4_27_1" type="SUMO_DEFAULT_TYPE" route="LE2LE4" depart="8" />
    <vehicle id="LE3LE4_28_0" type="SUMO_DEFAULT_TYPE" route="LE3LE4" depart="8" />
    <vehicle id="LE4LE3_29_0" type="SUMO_DEFAULT_TYPE" route="LE4LE3" depart="8" />
    <vehicle id="LE4LE2_30_1" type="SUMO_DEFAULT_TYPE" route="LE4LE2" depart="8" />
    <vehicle id="LE4LE1_31_2" type="SUMO_DEFAULT_TYPE" route="LE4LE1" depart="8" />
    <vehicle id="LE4LE2_32_3" type="SUMO_DEFAULT_TYPE" route="LE4LE2" depart="8" />
    <vehicle id="LE4LE3_33_4" type="SUMO_DEFAULT_TYPE" route="LE4LE3" depart="8" />
    <vehicle id="LE4LE2_34_0" type="SUMO_DEFAULT_TYPE" route="LE4LE2" depart="9" />
    <vehicle id="LE4LE1_35_1" type="SUMO_DEFAULT_TYPE" route="LE4LE1" depart="9" />
    <vehicle id="LE4LE1_36_2" type="SUMO_DEFAULT_TYPE" route="LE4LE1" depart="9" />
    <vehicle id="LE2LE4_37_0" type="SUMO_DEFAULT_TYPE" route="LE2LE4" depart="10" />
    <vehicle id="LE2LE3_38_1" type="SUMO_DEFAULT_TYPE" route="LE2LE3" depart="10" />
    <vehicle id="LE3LE2_39_0" type="SUMO_DEFAULT_TYPE" route="LE3LE2" depart="10" />
    <vehicle id="LE3LE2_40_1" type="SUMO_DEFAULT_TYPE" route="LE3LE2" depart="10" />
    <vehicle id="LE3LE1_41_2" type="SUMO_DEFAULT_TYPE" route="LE3LE1" depart="10" />
    <vehicle id="LE4LE1_42_0" type="SUMO_DEFAULT_TYPE" route="LE4LE1" depart="10" />
    <vehicle id="LE4LE2_43_1" type="SUMO_DEFAULT_TYPE" route="LE4LE2" depart="10" />
    <vehicle id="LE2LE1_44_0" type="SUMO_DEFAULT_TYPE" route="LE2LE1" depart="11" />
    <vehicle id="LE3LE1_45_0" type="SUMO_DEFAULT_TYPE" route="LE3LE1" depart="11" />
    <vehicle id="LE4LE2_46_0" type="SUMO_DEFAULT_TYPE" route="LE4LE2" depart="11" />
    <vehicle id="LE4LE1_47_0" type="SUMO_DEFAULT_TYPE" route="LE4LE1" depart="12" />
    <vehicle id="LE2LE3_48_0" type="SUMO_DEFAULT_TYPE" route="LE2LE3" depart="13" />
    <vehicle id="LE2LE3_49_1" type="SUMO_DEFAULT_TYPE" route="LE2LE3" depart="13" />
    <vehicle id="LE2LE4_50_2" type="SUMO_DEFAULT_TYPE" route="LE2LE4" depart="13" />
    <vehicle id="LE4LE2_51_0" type="SUMO_DEFAULT_TYPE" route="LE4LE2" depart="13" />
    <vehicle id="LE1LE2_52_0" type="SUMO_DEFAULT_TYPE" route="LE1LE2" depart="14" />
    <vehicle id="LE2LE4_53_0" type="SUMO_DEFAULT_TYPE" route="LE2LE4" depart="14" />
    <vehicle id="LE3LE2_54_0" type="SUMO_DEFAULT_TYPE" route="LE3LE2" depart="14" />
    <vehicle id="LE3LE4_55_1" type="SUMO_DEFAULT_TYPE" route="LE3LE4" depart="14" />
    <vehicle id="LE4LE1_56_0" type="SUMO_DEFAULT_TYPE" route="LE4LE1" depart="15" />
    <vehicle id="LE2LE3_57_0" type="SUMO_DEFAULT_TYPE" route="LE2LE3" depart="16" />
    <vehicle id="LE3LE1_58_0" type="SUMO_DEFAULT_TYPE" route="LE3LE1" depart="16" />
    <vehicle id="LE3LE4_59_1" type="SUMO_DEFAULT_TYPE" route="LE3LE4" depart="16" />
    <vehicle id="LE2LE3_60_0" type="SUMO_DEFAULT_TYPE" route="LE2LE3" depart="17" />
    <vehicle id="LE2LE4_61_1" type="SUMO_DEFAULT_TYPE" route="LE2LE4" depart="17" />
    <vehicle id="LE3LE4_62_0" type="SUMO_DEFAULT_TYPE" route="LE3LE4" depart="17" />
    <vehicle id="LE4LE2_63_0" type="SUMO_DEFAULT_TYPE" route="LE4LE2" depart="17" />
    <vehicle id="LE4LE3_64_1" type="SUMO_DEFAULT_TYPE" route="LE4LE3" depart="17" />
    <vehicle id="LE4LE1_65_2" type="SUMO_DEFAULT_TYPE" route="LE4LE1" depart="17" />
    <vehicle id="LE1LE4_66_0" type="SUMO_DEFAULT_TYPE" route="LE1LE4" depart="18" />
    <vehicle id="LE3LE1_67_0" type="SUMO_DEFAULT_TYPE" route="LE3LE1" depart="18" />
    <vehicle id="LE4LE1_68_0" type="SUMO_DEFAULT_TYPE" route="LE4LE1" depart="18" />
    <vehicle id="LE4LE3_69_1" type="SUMO_DEFAULT_TYPE" route="LE4LE3" depart="18" />
    <vehicle id="LE4LE1_70_2" type="SUMO_DEFAULT_TYPE" route="LE4LE1" depart="18" />
    <vehicle id="LE3LE2_71_0" type="SUMO_DEFAULT_TYPE" route="LE3LE2" depart="19" />
    <vehicle id="LE3LE1_72_1" type="SUMO_DEFAULT_TYPE" route="LE3LE1" depart="19" />
    <vehicle id="LE4LE1_73_0" type="SUMO_DEFAULT_TYPE" route="LE4LE1" depart="19" />
    <vehicle id="LE4LE1_74_1" type="SUMO_DEFAULT_TYPE" route="LE4LE1" depart="19" />
    <vehicle id="LE1LE3_75_0" type="SUMO_DEFAULT_TYPE" route="LE1LE3" depart="20" />
    <vehicle id="LE3LE2_76_0" type="SUMO_DEFAULT_TYPE" route="LE3LE2" depart="20" />
    <vehicle id="LE3LE2_77_1" type="SUMO_DEFAULT_TYPE" route="LE3LE2" depart="20" />
    <vehicle id="LE1LE4_78_0" type="SUMO_DEFAULT_TYPE" route="LE1LE4" depart="21" />
    <vehicle id="LE2LE3_79_0" type="SUMO_DEFAULT_TYPE" route="LE2LE3" depart="21" />
    <vehicle id="LE2LE1_80_1" type="SUMO_DEFAULT_TYPE" route="LE2LE1" depart="21" />
    <vehicle id="LE4LE2_81_0" type="SUMO_DEFAULT_TYPE" route="LE4LE2" depart="21" />
    <vehicle id="LE3LE2_82_0" type="SUMO_DEFAULT_TYPE" route="LE3LE2" depart="22" />
    <vehicle id="LE1LE2_83_0" type="SUMO_DEFAULT_TYPE" route="LE1LE2" depart="23" />
    <vehicle id="LE1LE4_84_1" type="SUMO_DEFAULT_TYPE" route="LE1LE4" depart="23" />
    <vehicle id="LE1LE3_85_2" type="SUMO_DEFAULT_TYPE" route="LE1LE3" depart="23" />
    <vehicle id="LE2LE4_86_0" type="SUMO_DEFAULT_TYPE" route="LE2LE4" depart="23" />
    <vehicle id="LE2LE4_87_1" type="SUMO_DEFAULT_TYPE" route="LE2LE4" depart="23" />
    <vehicle id="LE3LE4_88_0" type="SUMO_DEFAULT_TYPE" route="LE3LE4" depart="23" />
    <vehicle id="LE4LE1_89_0" type="SUMO_DEFAULT_TYPE" route="LE4LE1" depart="23" />
    <vehicle id="LE3LE4_90_0" type="SUMO_DEFAULT_TYPE" route="LE3LE4" depart="24" />
    <vehicle id="LE4LE3_91_0" type="SUMO_DEFAULT_TYPE" route="LE4LE3" depart="24" />
    <vehicle id="LE4LE1_92_1" type="SUMO_DEFAULT_TYPE" route="LE4LE1" depart="24" />
    <vehicle id="LE1LE4_93_0" type="SUMO_DEFAULT_TYPE" route="LE1LE4" depart="25" />
    <vehicle id="LE2LE4_94_0" type="SUMO_DEFAULT_TYPE" route="LE2LE4" depart="25" />
    <vehicle id="LE3LE1_95_0" type="SUMO_DEFAULT_TYPE" route="LE3LE1" depart="26" />
    <vehicle id="LE3LE1_96_1" type="SUMO_DEFAULT_TYPE" route="LE3LE1" depart="26" />
    <vehicle id="LE2LE3_97_0" type="SUMO_DEFAULT_TYPE" route="LE2LE3" depart="27" />
    <vehicle id="LE2LE3_98_1" type="SUMO_DEFAULT_TYPE" route="LE2LE3" depart="27" />
    <vehicle id="LE2LE3_99_0" type="SUMO_DEFAULT_TYPE" route="LE2LE3" depart="28" />
    <vehicle id="LE2LE4_100_1" type="SUMO_DEFAULT_TYPE" route="LE2LE4" depart="28" />
    <vehicle id="LE3LE4_101_0" type="SUMO_DEFAULT_TYPE" route="LE3LE4" depart="28" />
    <vehicle id="LE1LE4_102_0" type="SUMO_DEFAULT_TYPE" route="LE1LE4" depart="29" />
    <vehicle id="LE3LE1_103_0" type="SUMO_DEFAULT_TYPE" route="LE3LE1" depart="29" />
    <vehicle id="LE3LE4_104_1" type="SUMO_DEFAULT_TYPE" route="LE3LE4" depart="29" />
    <vehicle id="LE3LE2_105_2" type="SUMO_DEFAULT_TYPE" route="LE3LE2" depart="29" />
    <vehicle id="LE1LE2_106_0" type="SUMO_DEFAULT_TYPE" route="LE1LE2" depart="30" />
    <vehicle id="LE3LE1_107_0" type="SUMO_DEFAULT_TYPE" route="LE3LE1" depart="30" />
    <vehicle id="LE3LE1_108_1" type="SUMO_DEFAULT_TYPE" route="LE3LE1" depart="30" />
    <vehicle id="LE4LE2_109_0" type="SUMO_DEFAULT_TYPE" route="LE4LE2" depart="30" />
    <vehicle id="LE4LE2_110_0" type="SUMO_DEFAULT_TYPE" route="LE4LE2" depart="31" />
    <vehicle id="LE4LE2_111_1" type="SUMO_DEFAULT_TYPE" route="LE4LE2" depart="31" />
    <vehicle id="LE4LE1_112_2" type="SUMO_DEFAULT_TYPE" route="LE4LE1" depart="31" />
    <vehicle id="LE4LE1_113_3" type="SUMO_DEFAULT_TYPE" route="LE4LE1" depart="31" />
    <vehicle id="LE2LE4_114_0" type="SUMO_DEFAULT_TYPE" route="LE2LE4" depart="32" />
    <vehicle id="LE2LE4_115_1" type="SUMO_DEFAULT_TYPE" route="LE2LE4" depart="32" />
    <vehicle id="LE2LE3_116_2" type="SUMO_DEFAULT_TYPE" route="LE2LE3" depart="32" />
    <vehicle id="LE4LE1_117_0" type="SUMO_DEFAULT_TYPE" route="LE4LE1" depart="32" />
    <vehicle id="LE4LE3_118_1" type="SUMO_DEFAULT_TYPE" route="LE4LE3" depart="32" />
    <vehicle id="LE4LE2_119_0" type="SUMO_DEFAULT_TYPE" route="LE4LE2" depart="33" />
    <vehicle id="LE4LE2_120_1" type="SUMO_DEFAULT_TYPE" route="LE4LE2" depart="33" />
    <vehicle id="LE1LE4_121_0" type="SUMO_DEFAULT_TYPE" route="LE1LE4" depart="34" />
    <vehicle id="LE1LE3_122_1" type="SUMO_DEFAULT_TYPE" route="LE1LE3" depart="34" />
    <vehicle id="LE1LE2_123_2" type="SUMO_DEFAULT_TYPE" route="LE1LE2" depart="34" />
    <vehicle id="LE1LE3_124_3" type="SUMO_DEFAULT_TYPE" route="LE1LE3" depart="34" />
    <vehicle id="LE4LE1_125_0" type="SUMO_DEFAULT_TYPE" route="LE4LE1" depart="34" />
    <vehicle id="LE4LE1_126_1" type="SUMO_DEFAULT_TYPE" route="LE4LE1" depart="34" />
    <vehicle id="LE4LE3_127_2" type="SUMO_DEFAULT_TYPE" route="LE4LE3" depart="34" />
    <vehicle id="LE1LE4_128_0" type="SUMO_DEFAULT_TYPE" route="LE1LE4" depart="35" />
    <vehicle id="LE2LE4_129_0" type="SUMO_DEFAULT_TYPE" route="LE2LE4" depart="35" />
    <vehicle id="LE2LE3_130_1" type="SUMO_DEFAULT_TYPE" route="LE2LE3" depart="35" />
    <vehicle id="LE3LE4_131_0" type="SUMO_DEFAULT_TYPE" route="LE3LE4" depart="35" />
    <vehicle id="LE3LE4_132_1" type="SUMO_DEFAULT_TYPE" route="LE3LE4" depart="35" />
    <vehicle id="LE4LE2_133_0" type="SUMO_DEFAULT_TYPE" route="LE4LE2" depart="35" />
    <vehicle id="LE4LE3_134_1" type="SUMO_DEFAULT_TYPE" route="LE4LE3" depart="35" />
    <vehicle id="LE2LE3_135_0" type="SUMO_DEFAULT_TYPE" route="LE2LE3" depart="36" />
    <vehicle id="LE2LE3_136_1" type="SUMO_DEFAULT_TYPE" route="LE2LE3" depart="36" />
    <vehicle id="LE2LE1_137_2" type="SUMO_DEFAULT_TYPE" route="LE2LE1" depart="36" />
    <vehicle id="LE3LE1_138_0" type="SUMO_DEFAULT_TYPE" route="LE3LE1" depart="36" />
    <vehicle id="LE4LE3_139_0" type="SUMO_DEFAULT_TYPE" route="LE4LE3" depart="36" />
    <vehicle id="LE4LE2_140_1" type="SUMO_DEFAULT_TYPE" route="LE4LE2" depart="36" />
    <vehicle id="LE2LE1_141_0" type="SUMO_DEFAULT_TYPE" route="LE2LE1" depart="37" />
    <vehicle id="LE2LE1_142_1" type="SUMO_DEFAULT_TYPE" route="LE2LE1" depart="37" />
    <vehicle id="LE3LE1_143_0" type="SUMO_DEFAULT_TYPE" route="LE3LE1" depart="37" />
    <vehicle id="LE4LE1_144_0" type="SUMO_DEFAULT_TYPE" route="LE4LE1" depart="37" />
    <vehicle id="LE4LE3_145_1" type="SUMO_DEFAULT_TYPE" route="LE4LE3" depart="37" />
    <vehicle id="LE2LE1_146_0" type="SUMO_DEFAULT_TYPE" route="LE2LE1" depart="38" />
    <vehicle id="LE3LE4_147_0" type="SUMO_DEFAULT_TYPE" route="LE3LE4" depart="38" />
    <vehicle id="LE3LE2_148_1" type="SUMO_DEFAULT_TYPE" route="LE3LE2" depart="38" />
    <vehicle id="LE4LE3_149_0" type="SUMO_DEFAULT_TYPE" route="LE4LE3" depart="38" />
    <vehicle id="LE2LE1_150_0" type="SUMO_DEFAULT_TYPE" route="LE2LE1" depart="39" />
    <vehicle id="LE4LE2_151_0" type="SUMO_DEFAULT_TYPE" route="LE4LE2" depart="39" />
    <vehicle id="LE4LE2_152_1" type="SUMO_DEFAULT_TYPE" route="LE4LE2" depart="39" />
    <vehicle id="LE2LE4_153_0" type="SUMO_DEFAULT_TYPE" route="LE2LE4" depart="40" />
    <vehicle id="LE3LE2_154_0" type="SUMO_DEFAULT_TYPE" route="LE3LE2" depart="40" />
    <vehicle id="LE3LE4_155_1" type="SUMO_DEFAULT_TYPE" route="LE3LE4" depart="40" />
    <vehicle id="LE3LE2_156_2" type="SUMO_DEFAULT_TYPE" route="LE3LE2" depart="40" />
    <vehicle id="LE4LE3_157_0" type="SUMO_DEFAULT_TYPE" route="LE4LE3" depart="40" />
    <vehicle id="LE4LE1_158_1" type="SUMO_DEFAULT_TYPE" route="LE4LE1" depart="40" />
    <vehicle id="LE1LE4_159_0" type="SUMO_DEFAULT_TYPE" route="LE1LE4" depart="41" />
    <vehicle id="LE2LE4_160_0" type="SUMO_DEFAULT_TYPE" route="LE2LE4" depart="41" />
    <vehicle id="LE3LE1_161_0" type="SUMO_DEFAULT_TYPE" route="LE3LE1" depart="41" />
    <vehicle id="LE3LE4_162_1" type="SUMO_DEFAULT_TYPE" route="LE3LE4" depart="41" />
    <vehicle id="LE2LE4_163_0" type="SUMO_DEFAULT_TYPE" route="LE2LE4" depart="43" />
    <vehicle id="LE2LE3_164_1" type="SUMO_DEFAULT_TYPE" route="LE2LE3" depart="43" />
    <vehicle id="LE3LE4_165_0" type="SUMO_DEFAULT_TYPE" route="LE3LE4" depart="43" />
    <vehicle id="LE3LE2_166_1" type="SUMO_DEFAULT_TYPE" route="LE3LE2" depart="43" />
    <vehicle id="LE4LE1_167_0" type="SUMO_DEFAULT_TYPE" route="LE4LE1" depart="43" />
    <vehicle id="LE4LE2_168_1" type="SUMO_DEFAULT_TYPE" route="LE4LE2" depart="43" />
    <vehicle id="LE4LE2_169_2" type="SUMO_DEFAULT_TYPE" route="LE4LE2" depart="43" />
    <vehicle id="LE4LE1_170_0" type="SUMO_DEFAULT_TYPE" route="LE4LE1" depart="44" />
    <vehicle id="LE1LE3_171_0" type="SUMO_DEFAULT_TYPE" route="LE1LE3" depart="45" />
    <vehicle id="LE2LE1_172_0" type="SUMO_DEFAULT_TYPE" route="LE2LE1" depart="45" />
    <vehicle id="LE1LE4_173_0" type="SUMO_DEFAULT_TYPE" route="LE1LE4" depart="46" />
    <vehicle id="LE1LE4_174_1" type="SUMO_DEFAULT_TYPE" route="LE1LE4" depart="46" />
    <vehicle id="LE2LE3_175_0" type="SUMO_DEFAULT_TYPE" route="LE2LE3" depart="46" />
    <vehicle id="LE4LE3_176_0" type="SUMO_DEFAULT_TYPE" route="LE4LE3" depart="46" />
    <vehicle id="LE2LE1_177_0" type="SUMO_DEFAULT_TYPE" route="LE2LE1" depart="47" />
    <vehicle id="LE4LE3_178_0" type="SUMO_DEFAULT_TYPE" route="LE4LE3" depart="47" />
    <vehicle id="LE4LE1_179_1" type="SUMO_DEFAULT_TYPE" route="LE4LE1" depart="47" />
    <vehicle id="LE4LE3_180_2" type="SUMO_DEFAULT_TYPE" route="LE4LE3" depart="47" />
    <vehicle id="LE1LE3_181_0" type="SUMO_DEFAULT_TYPE" route="LE1LE3" depart="48" />
    <vehicle id="LE1LE4_182_1" type="SUMO_DEFAULT_TYPE" route="LE1LE4" depart="48" />
    <vehicle id="LE3LE4_183_0" type="SUMO_DEFAULT_TYPE" route="LE3LE4" depart="48" />
    <vehicle id="LE3LE4_184_1" type="SUMO_DEFAULT_TYPE" route="LE3LE4" depart="48" />
    <vehicle id="LE3LE1_185_2" type="SUMO_DEFAULT_TYPE" route="LE3LE1" depart="48" />
    <vehicle id="LE3LE1_186_3" type="SUMO_DEFAULT_TYPE" route="LE3LE1" depart="48" />
    <vehicle id="LE1LE3_187_0" type="SUMO_DEFAULT_TYPE" route="LE1LE3" depart="49" />
    <vehicle id="LE2LE1_188_0" type="SUMO_DEFAULT_TYPE" route="LE2LE1" depart="49" />
    <vehicle id="LE3LE4_189_0" type="SUMO_DEFAULT_TYPE" route="LE3LE4" depart="49" />
    <vehicle id="LE3LE4_190_1" type="SUMO_DEFAULT_TYPE" route="LE3LE4" depart="49" />
    <vehicle id="LE4LE1_191_0" type="SUMO_DEFAULT_TYPE" route="LE4LE1" depart="49" />
    <vehicle id="LE4LE3_192_1" type="SUMO_DEFAULT_TYPE" route="LE4LE3" depart="49" />
    <vehicle id="LE4LE2_193_2" type="SUMO_DEFAULT_TYPE" route="LE4LE2" depart="49" />
    <vehicle id="LE4LE2_194_3" type="SUMO_DEFAULT_TYPE" route="LE4LE2" depart="49" />
    <vehicle id="LE2LE1_195_0" type="SUMO_DEFAULT_TYPE" route="LE2LE1" depart="50" />
    <vehicle id="LE3LE1_196_0" type="SUMO_DEFAULT_TYPE" route="LE3LE1" depart="50" />
    <vehicle id="LE4LE2_197_0" type="SUMO_DEFAULT_TYPE" route="LE4LE2" depart="50" />
    <vehicle id="LE2LE3_198_0" type="SUMO_DEFAULT_TYPE" route="LE2LE3" depart="51" />
    <vehicle id="LE3LE1_199_0" type="SUMO_DEFAULT_TYPE" route="LE3LE1" depart="51" />
    <vehicle id="LE3LE1_200_1" type="SUMO_DEFAULT_TYPE" route="LE3LE1" depart="51" />
    <vehicle id="LE3LE1_201_2" type="SUMO_DEFAULT_TYPE" route="LE3LE1" depart="51" />
    <vehicle id="LE4LE3_202_0" type="SUMO_DEFAULT_TYPE" route="LE4LE3" depart="51" />
    <vehicle id="LE4LE1_203_1" type="SUMO_DEFAULT_TYPE" route="LE4LE1" depart="51" />
    <vehicle id="LE1LE2_204_0" type="SUMO_DEFAULT_TYPE" route="LE1LE2" depart="52" />
    <vehicle id="LE2LE4_205_0" type="SUMO_DEFAULT_TYPE" route="LE2LE4" depart="52" />
    <vehicle id="LE3LE2_206_0" type="SUMO_DEFAULT_TYPE" route="LE3LE2" depart="53" />
    <vehicle id="LE4LE1_207_0" type="SUMO_DEFAULT_TYPE" route="LE4LE1" depart="53" />
    <vehicle id="LE4LE3_208_0" type="SUMO_DEFAULT_TYPE" route="LE4LE3" depart="54" />
    <vehicle id="LE4LE1_209_1" type="SUMO_DEFAULT_TYPE" route="LE4LE1" depart="54" />
    <vehicle id="LE2LE1_210_0" type="SUMO_DEFAULT_TYPE" route="LE2LE1" depart="55" />
    <vehicle id="LE3LE4_211_0" type="SUMO_DEFAULT_TYPE" route="LE3LE4" depart="55" />
    <vehicle id="LE4LE2_212_0" type="SUMO_DEFAULT_TYPE" route="LE4LE2" depart="55" />
    <vehicle id="LE4LE3_213_1" type="SUMO_DEFAULT_TYPE" route="LE4LE3" depart="55" />
    <vehicle id="LE4LE1_214_2" type="SUMO_DEFAULT_TYPE" route="LE4LE1" depart="55" />
    <vehicle id="LE4LE2_215_3" type="SUMO_DEFAULT_TYPE" route="LE4LE2" depart="55" />
    <vehicle id="LE4LE3_216_4" type="SUMO_DEFAULT_TYPE" route="LE4LE3" depart="55" />
    <vehicle id="LE2LE4_217_0" type="SUMO_DEFAULT_TYPE" route="LE2LE4" depart="56" />
    <vehicle id="LE1LE3_218_0" type="SUMO_DEFAULT_TYPE" route="LE1LE3" depart="57" />
    <vehicle id="LE2LE1_219_0" type="SUMO_DEFAULT_TYPE" route="LE2LE1" depart="57" />
    <vehicle id="LE3LE4_220_0" type="SUMO_DEFAULT_TYPE" route="LE3LE4" depart="57" />
    <vehicle id="LE1LE4_221_0" type="SUMO_DEFAULT_TYPE" route="LE1LE4" depart="58" />
    <vehicle id="LE2LE4_222_0" type="SUMO_DEFAULT_TYPE" route="LE2LE4" depart="58" />
    <vehicle id="LE2LE1_223_1" type="SUMO_DEFAULT_TYPE" route="LE2LE1" depart="58" />
    <vehicle id="LE3LE4_224_0" type="SUMO_DEFAULT_TYPE" route="LE3LE4" depart="58" />
    <vehicle id="LE3LE2_225_1" type="SUMO_DEFAULT_TYPE" route="LE3LE2" depart="58" />
    <vehicle id="LE4LE2_226_0" type="SUMO_DEFAULT_TYPE" route="LE4LE2" depart="58" />
    <vehicle id="LE4LE3_227_1" type="SUMO_DEFAULT_TYPE" route="LE4LE3" depart="58" />
    <vehicle id="LE2LE4_228_0" type="SUMO_DEFAULT_TYPE" route="LE2LE4" depart="59" />
    <vehicle id="LE2LE3_229_1" type="SUMO_DEFAULT_TYPE" route="LE2LE3" depart="59" />
    <vehicle id="LE3LE2_230_0" type="SUMO_DEFAULT_TYPE" route="LE3LE2" depart="59" />
    <vehicle id="LE4LE3_231_0" type="SUMO_DEFAULT_TYPE" route="LE4LE3" depart="59" />
    <vehicle id="LE4LE2_232_1" type="SUMO_DEFAULT_TYPE" route="LE4LE2" depart="59" />
    <vehicle id="LE1LE2_233_0" type="SUMO_DEFAULT_TYPE" route="LE1LE2" depart="60" />
    <vehicle id="LE2LE1_234_0" type="SUMO_DEFAULT_TYPE" route="LE2LE1" depart="60" />
    <vehicle id="LE3LE1_235_0" type="SUMO_DEFAULT_TYPE" route="LE3LE1" depart="60" />
    <vehicle id="LE3LE1_236_1" type="SUMO_DEFAULT_TYPE" route="LE3LE1" depart="60" />
    <vehicle id="LE4LE2_237_0" type="SUMO_DEFAULT_TYPE" route="LE4LE2" depart="60" />
    <vehicle id="LE4LE1_238_1" type="SUMO_DEFAULT_TYPE" route="LE4LE1" depart="60" />
    <vehicle id="LE4LE3_239_2" type="SUMO_DEFAULT_TYPE" route="LE4LE3" depart="60" />
    <vehicle id="LE3LE4_240_0" type="SUMO_DEFAULT_TYPE" route="LE3LE4" depart="61" />
    <vehicle id="LE3LE1_241_1" type="SUMO_DEFAULT_TYPE" route="LE3LE1" depart="61" />
    <vehicle id="LE4LE3_242_0" type="SUMO_DEFAULT_TYPE" route="LE4LE3" depart="61" />
    <vehicle id="LE4LE1_243_1" type="SUMO_DEFAULT_TYPE" route="LE4LE1" depart="61" />
    <vehicle id="LE4LE1_244_2" type="SUMO_DEFAULT_TYPE" route="LE4LE1" depart="61" />
    <vehicle id="LE1LE2_245_0" type="SUMO_DEFAULT_TYPE" route="LE1LE2" depart="62" />
    <vehicle id="LE3LE4_246_0" type="SUMO_DEFAULT_TYPE" route="LE3LE4" depart="62" />
    <vehicle id="LE4LE3_247_0" type="SUMO_DEFAULT_TYPE" route="LE4LE3" depart="62" />
    <vehicle id="LE4LE1_248_1" type="SUMO_DEFAULT_TYPE" route="LE4LE1" depart="62" />
    <vehicle id="LE4LE1_249_2" type="SUMO_DEFAULT_TYPE" route="LE4LE1" depart="62" />
    <vehicle id="LE3LE1_250_0" type="SUMO_DEFAULT_TYPE" route="LE3LE1" depart="63" />
    <vehicle id="LE3LE1_251_1" type="SUMO_DEFAULT_TYPE" route="LE3LE1" depart="63" />
    <vehicle id="LE4LE2_252_0" type="SUMO_DEFAULT_TYPE" route="LE4LE2" depart="63" />
    <vehicle id="LE4LE1_253_0" type="SUMO_DEFAULT_TYPE" route="LE4LE1" depart="65" />
    <vehicle id="LE3LE4_254_0" type="SUMO_DEFAULT_TYPE" route="LE3LE4" depart="66" />
    <vehicle id="LE4LE1_255_0" type="SUMO_DEFAULT_TYPE" route="LE4LE1" depart="66" />
    <vehicle id="LE2LE3_256_0" type="SUMO_DEFAULT_TYPE" route="LE2LE3" depart="67" />
    <vehicle id="LE3LE4_257_0" type="SUMO_DEFAULT_TYPE" route="LE3LE4" depart="67" />
    <vehicle id="LE3LE2_258_1" type="SUMO_DEFAULT_TYPE" route="LE3LE2" depart="67" />
    <vehicle id="LE4LE1_259_0" type="SUMO_DEFAULT_TYPE" route="LE4LE1" depart="67" />
    <vehicle id="LE4LE3_260_1" type="SUMO_DEFAULT_TYPE" route="LE4LE3" depart="67" />
    <vehicle id="LE4LE1_261_2" type="SUMO_DEFAULT_TYPE" route="LE4LE1" depart="67" />
    <vehicle id="LE1LE4_262_0" type="SUMO_DEFAULT_TYPE" route="LE1LE4" depart="68" />
    <vehicle id="LE3LE4_263_0" type="SUMO_DEFAULT_TYPE" route="LE3LE4" depart="68" />
    <vehicle id="LE3LE4_264_1" type="SUMO_DEFAULT_TYPE" route="LE3LE4" depart="68" />
    <vehicle id="LE4LE2_265_0" type="SUMO_DEFAULT_TYPE" route="LE4LE2" depart="68" />
    <vehicle id="LE2LE1_266_0" type="SUMO_DEFAULT_TYPE" route="LE2LE1" depart="69" />
    <vehicle id="LE4LE2_267_0" type="SUMO_DEFAULT_TYPE" route="LE4LE2" depart="69" />
    <vehicle id="LE1LE3_268_0" type="SUMO_DEFAULT_TYPE" route="LE1LE3" depart="70" />
    <vehicle id="LE3LE1_269_0" type="SUMO_DEFAULT_TYPE" route="LE3LE1" depart="70" />
    <vehicle id="LE3LE1_270_1" type="SUMO_DEFAULT_TYPE" route="LE3LE1" depart="70" />
    <vehicle id="LE3LE1_271_0" type="SUMO_DEFAULT_TYPE" route="LE3LE1" depart="71" />
    <vehicle id="LE4LE3_272_0" type="SUMO_DEFAULT_TYPE" route="LE4LE3" depart="71" />
    <vehicle id="LE1LE3_273_0" type="SUMO_DEFAULT_TYPE" route="LE1LE3" depart="72" />
    <vehicle id="LE2LE3_274_0" type="SUMO_DEFAULT_TYPE" route="LE2LE3" depart="72" />
    <vehicle id="LE2LE3_275_1" type="SUMO_DEFAULT_TYPE" route="LE2LE3" depart="72" />
    <vehicle id="LE3LE2_276_0" type="SUMO_DEFAULT_TYPE" route="LE3LE2" depart="72" />
    <vehicle id="LE4LE2_277_0" type="SUMO_DEFAULT_TYPE" route="LE4LE2" depart="72" />
    <vehicle id="LE4LE3_278_1" type="SUMO_DEFAULT_TYPE" route="LE4LE3" depart="72" />
    <vehicle id="LE4LE1_279_2" type="SUMO_DEFAULT_TYPE" route="LE4LE1" depart="72" />
    <vehicle id="LE4LE3_280_3" type="SUMO_DEFAULT_TYPE" route="LE4LE3" depart="72" />
    <vehicle id="LE2LE4_281_0" type="SUMO_DEFAULT_TYPE" route="LE2LE4" depart="73" />
    <vehicle id="LE3LE4_282_0" type="SUMO_DEFAULT_TYPE" route="LE3LE4" depart="73" />
    <vehicle id="LE3LE1_283_1" type="SUMO_DEFAULT_TYPE" route="LE3LE1" depart="73" />
    <vehicle id="LE4LE1_284_0" type="SUMO_DEFAULT_TYPE" route="LE4LE1" depart="73" />
    <vehicle id="LE2LE3_285_0" type="SUMO_DEFAULT_TYPE" route="LE2LE3" depart="74" />
    <vehicle id="LE2LE4_286_1" type="SUMO_DEFAULT_TYPE" route="LE2LE4" depart="74" />
    <vehicle id="LE3LE2_287_0" type="SUMO_DEFAULT_TYPE" route="LE3LE2" depart="74" />
    <vehicle id="LE3LE1_288_1" type="SUMO_DEFAULT_TYPE" route="LE3LE1" depart="74" />
    <vehicle id="LE4LE1_289_0" type="SUMO_DEFAULT_TYPE" route="LE4LE1" depart="74" />
    <vehicle id="LE3LE1_290_0" type="SUMO_DEFAULT_TYPE" route="LE3LE1" depart="75" />
    <vehicle id="LE4LE1_291_0" type="SUMO_DEFAULT_TYPE" route="LE4LE1" depart="75" />
    <vehicle id="LE1LE4_292_0" type="SUMO_DEFAULT_TYPE" route="LE1LE4" depart="76" />
    <vehicle id="LE1LE3_293_1" type="SUMO_DEFAULT_TYPE" route="LE1LE3" depart="76" />
    <vehicle id="LE3LE1_294_0" type="SUMO_DEFAULT_TYPE" route="LE3LE1" depart="76" />
    <vehicle id="LE1LE3_295_0" type="SUMO_DEFAULT_TYPE" route="LE1LE3" depart="77" />
    <vehicle id="LE1LE2_296_1" type="SUMO_DEFAULT_TYPE" route="LE1LE2" depart="77" />
    <vehicle id="LE2LE3_297_0" type="SUMO_DEFAULT_TYPE" route="LE2LE3" depart="77" />
    <vehicle id="LE3LE2_298_0" type="SUMO_DEFAULT_TYPE" route="LE3LE2" depart="77" />
    <vehicle id="LE1LE2_299_0" type="SUMO_DEFAULT_TYPE" route="LE1LE2" depart="78" />
    <vehicle id="LE2LE1_300_0" type="SUMO_DEFAULT_TYPE" route="LE2LE1" depart="78" />
    <vehicle id="LE2LE3_301_1" type="SUMO_DEFAULT_TYPE" route="LE2LE3" depart="78" />
    <vehicle id="LE2LE4_302_2" type="SUMO_DEFAULT_TYPE" route="LE2LE4" depart="78" />
    <vehicle id="LE1LE2_303_0" type="SUMO_DEFAULT_TYPE" route="LE1LE2" depart="79" />
    <vehicle id="LE1LE2_304_1" type="SUMO_DEFAULT_TYPE" route="LE1LE2" depart="79" />
    <vehicle id="LE2LE4_305_0" type="SUMO_DEFAULT_TYPE" route="LE2LE4" depart="79" />
    <vehicle id="LE2LE4_306_1" type="SUMO_DEFAULT_TYPE" route="LE2LE4" depart="79" />
    <vehicle id="LE2LE1_307_2" type="SUMO_DEFAULT_TYPE" route="LE2LE1" depart="79" />
    <vehicle id="LE2LE1_308_3" type="SUMO_DEFAULT_TYPE" route="LE2LE1" depart="79" />
    <vehicle id="LE3LE1_309_0" type="SUMO_DEFAULT_TYPE" route="LE3LE1" depart="79" />
    <vehicle id="LE3LE1_310_1" type="SUMO_DEFAULT_TYPE" route="LE3LE1" depart="79" />
    <vehicle id="LE3LE2_311_2" type="SUMO_DEFAULT_TYPE" route="LE3LE2" depart="79" />
    <vehicle id="LE3LE2_312_0" type="SUMO_DEFAULT_TYPE" route="LE3LE2" depart="80" />
    <vehicle id="LE4LE2_313_0" type="SUMO_DEFAULT_TYPE" route="LE4LE2" depart="80" />
    <vehicle id="LE2LE1_314_0" type="SUMO_DEFAULT_TYPE" route="LE2LE1" depart="81" />
    <vehicle id="LE3LE2_315_0" type="SUMO_DEFAULT_TYPE" route="LE3LE2" depart="81" />
    <vehicle id="LE3LE1_316_1" type="SUMO_DEFAULT_TYPE" route="LE3LE1" depart="81" />
    <vehicle id="LE4LE1_317_0" type="SUMO_DEFAULT_TYPE" route="LE4LE1" depart="81" />
    <vehicle id="LE4LE2_318_1" type="SUMO_DEFAULT_TYPE" route="LE4LE2" depart="81" />
    <vehicle id="LE2LE1_319_0" type="SUMO_DEFAULT_TYPE" route="LE2LE1" depart="82" />
    <vehicle id="LE2LE3_320_1" type="SUMO_DEFAULT_TYPE" route="LE2LE3" depart="82" />
    <vehicle id="LE3LE2_321_0" type="SUMO_DEFAULT_TYPE" route="LE3LE2" depart="82" />
    <vehicle id="LE4LE2_322_0" type="SUMO_DEFAULT_TYPE" route="LE4LE2" depart="82" />
    <vehicle id="LE4LE2_323_1" type="SUMO_DEFAULT_TYPE" route="LE4LE2" depart="82" />
    <vehicle id="LE1LE3_324_0" type="SUMO_DEFAULT_TYPE" route="LE1LE3" depart="83" />
    <vehicle id="LE1LE4_325_1" type="SUMO_DEFAULT_TYPE" route="LE1LE4" depart="83" />
    <vehicle id="LE2LE4_326_0" type="SUMO_DEFAULT_TYPE" route="LE2LE4" depart="83" />
    <vehicle id="LE3LE4_327_0" type="SUMO_DEFAULT_TYPE" route="LE3LE4" depart="83" />
    <vehicle id="LE3LE4_328_1" type="SUMO_DEFAULT_TYPE" route="LE3LE4" depart="83" />
    <vehicle id="LE3LE4_329_2" type="SUMO_DEFAULT_TYPE" route="LE3LE4" depart="83" />
    <vehicle id="LE3LE2_330_3" type="SUMO_DEFAULT_TYPE" route="LE3LE2" depart="83" />
    <vehicle id="LE4LE1_331_0" type="SUMO_DEFAULT_TYPE" route="LE4LE1" depart="83" />
    <vehicle id="LE2LE1_332_0" type="SUMO_DEFAULT_TYPE" route="LE2LE1" depart="84" />
    <vehicle id="LE2LE3_333_0" type="SUMO_DEFAULT_TYPE" route="LE2LE3" depart="85" />
    <vehicle id="LE2LE1_334_1" type="SUMO_DEFAULT_TYPE" route="LE2LE1" depart="85" />
    <vehicle id="LE2LE1_335_2" type="SUMO_DEFAULT_TYPE" route="LE2LE1" depart="85" />
    <vehicle id="LE4LE3_336_0" type="SUMO_DEFAULT_TYPE" route="LE4LE3" depart="85" />
    <vehicle id="LE4LE3_337_1" type="SUMO_DEFAULT_TYPE" route="LE4LE3" depart="85" />
    <vehicle id="LE2LE4_338_0" type="SUMO_DEFAULT_TYPE" route="LE2LE4" depart="86" />