<?xml version="1.0" encoding="UTF-8"?>

<!-- generated on 03/08/19 16:09:49 by Eclipse SUMO netedit Version v1_1_0+0008-ffcb6ceee0
<configuration xmlns:xsi="http://www.w3.org/2001/XMLSchema-instance" xsi:noNamespaceSchemaLocation="http://sumo.dlr.de/xsd/netconvertConfiguration.xsd">

    <input>
        <sumo-net-file value="C:\Users\user\Desktop\Final%20Year%20Project\Smart%20traffic\SUmo\Adaptive-Traffic-Signal-Control-Using-Reinforcement-Learning-master\My%20network%20(%201%20Junction%20)%20-%205th%20March\Intersection.net.xml"/>
    </input>

    <output>
        <output-file value="C:\Users\user\Desktop\Final%20Year%20Project\Smart%20traffic\SUmo\Adaptive-Traffic-Signal-Control-Using-Reinforcement-Learning-master\My%20network%20(%201%20Junction%20)%20-%205th%20March\Intersection.net.xml"/>
    </output>

    <processing>
        <geometry.max-grade.fix value="false"/>
        <offset.disable-normalization value="true"/>
        <lefthand value="false"/>
    </processing>

    <junctions>
        <no-turnarounds value="true"/>
        <junctions.corner-detail value="5"/>
        <junctions.limit-turn-speed value="5.5"/>
        <rectangular-lane-cut value="false"/>
    </junctions>

    <pedestrian>
        <walkingareas value="false"/>
    </pedestrian>

</configuration>
-->

<net version="1.1" junctionCornerDetail="5" limitTurnSpeed="5.50" xmlns:xsi="http://www.w3.org/2001/XMLSchema-instance" xsi:noNamespaceSchemaLocation="http://sumo.dlr.de/xsd/net_file.xsd">

    <location netOffset="0.00,0.00" convBoundary="-100.00,-100.00,300.00,300.00" origBoundary="-10000000000.00,-10000000000.00,10000000000.00,10000000000.00" projParameter="!"/>

    <edge id=":LJ1_0" function="internal">
        <lane id=":LJ1_0_0" index="0" speed="12.50" length="11.73" shape="92.00,113.60 91.65,109.75 90.60,107.00 88.85,105.35 86.40,104.80"/>
    </edge>
    <edge id=":LJ1_1" function="internal">
        <lane id=":LJ1_1_0" index="0" speed="12.50" length="27.32" shape="95.20,113.60 95.20,86.40"/>
        <lane id=":LJ1_1_1" index="1" speed="12.50" length="27.32" shape="95.20,113.60 95.70,104.98 96.80,98.61 97.90,92.94 98.40,86.40"/>
    </edge>
    <edge id=":LJ1_3" function="internal">
        <lane id=":LJ1_3_0" index="0" speed="12.50" length="24.51" shape="98.40,113.60 99.35,106.95 102.20,102.20 106.95,99.35 113.60,98.40"/>
    </edge>
    <edge id=":LJ1_4" function="internal">
        <lane id=":LJ1_4_0" index="0" speed="12.50" length="11.73" shape="113.60,108.00 109.75,108.35 107.00,109.40 105.35,111.15 104.80,113.60"/>
    </edge>
    <edge id=":LJ1_5" function="internal">
        <lane id=":LJ1_5_0" index="0" speed="12.50" length="27.32" shape="113.60,104.80 86.40,104.80"/>
        <lane id=":LJ1_5_1" index="1" speed="12.50" length="27.32" shape="113.60,104.80 104.98,104.30 98.61,103.20 92.94,102.10 86.40,101.60"/>
    </edge>
    <edge id=":LJ1_7" function="internal">
        <lane id=":LJ1_7_0" index="0" speed="12.50" length="24.51" shape="113.60,101.60 106.95,100.65 102.20,97.80 99.35,93.05 98.40,86.40"/>
    </edge>
    <edge id=":LJ1_8" function="internal">
        <lane id=":LJ1_8_0" index="0" speed="12.50" length="11.73" shape="108.00,86.40 108.35,90.25 109.40,93.00 111.15,94.65 113.60,95.20"/>
    </edge>
    <edge id=":LJ1_9" function="internal">
        <lane id=":LJ1_9_0" index="0" speed="12.50" length="27.32" shape="104.80,86.40 104.80,113.60"/>
        <lane id=":LJ1_9_1" index="1" speed="12.50" length="27.32" shape="104.80,86.40 104.30,95.02 103.20,101.39 102.10,107.06 101.60,113.60"/>
    </edge>
    <edge id=":LJ1_11" function="internal">
        <lane id=":LJ1_11_0" index="0" speed="12.50" length="24.51" shape="101.60,86.40 100.65,93.05 97.80,97.80 93.05,100.65 86.40,101.60"/>
    </edge>
    <edge id=":LJ1_12" function="internal">
        <lane id=":LJ1_12_0" index="0" speed="12.50" length="11.73" shape="86.40,92.00 90.25,91.65 93.00,90.60 94.65,88.85 95.20,86.40"/> 
    </edge>
    <edge id=":LJ1_13" function="internal">
        <lane id=":LJ1_13_0" index="0" speed="12.50" length="27.32" shape="86.40,95.20 113.60,95.20"/>
        <lane id=":LJ1_13_1" index="1" speed="12.50" length="27.32" shape="86.40,95.20 95.02,95.70 101.39,96.80 107.06,97.90 113.60,98.40"/>
    </edge>
    <edge id=":LJ1_15" function="internal">
        <lane id=":LJ1_15_0" index="0" speed="12.50" length="27.14" shape="86.40,98.40 94.45,99.35 100.20,102.20 103.65,106.95 104.80,113.60"/>
    </edge>
    <edge id=":LJ1_16" function="internal">
        <lane id=":LJ1_16_0" index="0" speed="12.50" length="24.51" shape="86.40,98.40 93.05,99.35 97.80,102.20 100.65,106.95 101.60,113.60"/>
    </edge>

    <edge id="LE1LJ1" from="LE1" to="LJ1" priority="-1">
        <lane id="LE1LJ1_0" index="0" speed="13.89" length="186.40" shape="92.00,300.00 92.00,113.60"/>
        <lane id="LE1LJ1_1" index="1" speed="13.89" length="186.40" shape="95.20,300.00 95.20,113.60"/>
        <lane id="LE1LJ1_2" index="2" speed="13.89" length="186.40" shape="98.40,300.00 98.40,113.60"/>
    </edge>
    <edge id="LE2LJ1" from="LE2" to="LJ1" priority="-1">
        <lane id="LE2LJ1_0" index="0" speed="13.89" length="186.40" shape="-100.00,92.00 86.40,92.00"/>
        <lane id="LE2LJ1_1" index="1" speed="13.89" length="186.40" shape="-100.00,95.20 86.40,95.20"/>
        <lane id="LE2LJ1_2" index="2" speed="13.89" length="186.40" shape="-100.00,98.40 86.40,98.40"/>
    </edge>
    <edge id="LE3LJ1" from="LE3" to="LJ1" priority="-1">
        <lane id="LE3LJ1_0" index="0" speed="13.89" length="186.40" shape="108.00,-100.00 108.00,86.40"/>
        <lane id="LE3LJ1_1" index="1" speed="13.89" length="186.40" shape="104.80,-100.00 104.80,86.40"/>
        <lane id="LE3LJ1_2" index="2" speed="13.89" length="186.40" shape="101.60,-100.00 101.60,86.40"/>
    </edge>
    <edge id="LE4LJ1" from="LE4" to="LJ1" priority="-1">
        <lane id="LE4LJ1_0" index="0" speed="13.89" length="186.40" shape="300.00,108.00 113.60,108.00"/>
        <lane id="LE4LJ1_1" index="1" speed="13.89" length="186.40" shape="300.00,104.80 113.60,104.80"/>
        <lane id="LE4LJ1_2" index="2" speed="13.89" length="186.40" shape="300.00,101.60 113.60,101.60"/>
    </edge>
    <edge id="LJ1LE1" from="LJ1" to="LE1" priority="-1">
        <lane id="LJ1LE1_0" index="0" speed="13.89" length="186.40" shape="104.80,113.60 104.80,300.00"/>
        <lane id="LJ1LE1_1" index="1" speed="13.89" length="186.40" shape="101.60,113.60 101.60,300.00"/>
    </edge>
    <edge id="LJ1LE2" from="LJ1" to="LE2" priority="-1">
        <lane id="LJ1LE2_0" index="0" speed="13.89" length="186.40" shape="86.40,104.80 -100.00,104.80"/>
        <lane id="LJ1LE2_1" index="1" speed="13.89" length="186.40" shape="86.40,101.60 -100.00,101.60"/>
    </edge>
    <edge id="LJ1LE3" from="LJ1" to="LE3" priority="-1">
        <lane id="LJ1LE3_0" index="0" speed="13.89" length="186.40" shape="95.20,86.40 95.20,-100.00"/>
        <lane id="LJ1LE3_1" index="1" speed="13.89" length="186.40" shape="98.40,86.40 98.40,-100.00"/>
    </edge>
    <edge id="LJ1LE4" from="LJ1" to="LE4" priority="-1">
        <lane id="LJ1LE4_0" index="0" speed="13.89" length="186.40" shape="113.60,95.20 300.00,95.20"/>
        <lane id="LJ1LE4_1" index="1" speed="13.89" length="186.40" shape="113.60,98.40 300.00,98.40"/>
    </edge>

    <tlLogic id="LJ1" type="static" programID="0" offset="0">
        <phase duration="100" state="GGGGGrrrrrrrrrrrrrrr"/>
        <phase duration="3"  state="yyyyyrrrrrrrrrrrrrrr"/>
        <phase duration="38" state="rrrrrGGGGGrrrrrrrrrr"/>
        <phase duration="3"  state="rrrrryyyyyrrrrrrrrrr"/>
        <phase duration="79" state="rrrrrrrrrrGGGGGrrrrr"/>
        <phase duration="3"  state="rrrrrrrrrryyyyyrrrrr"/>
        <phase duration="38" state="rrrrrrrrrrrrrrrGGGGG"/>
        <phase duration="3"  state="rrrrrrrrrrrrrrryyyyy"/>
    </tlLogic>

    <junction id="LE1" type="dead_end" x="100.00" y="300.00" incLanes="LJ1LE1_0 LJ1LE1_1" intLanes="" shape="100.00,300.00 106.40,300.00 100.00,300.00"/>
    <junction id="LE2" type="dead_end" x="-100.00" y="100.00" incLanes="LJ1LE2_0 LJ1LE2_1" intLanes="" shape="-100.00,100.00 -100.00,106.40 -100.00,100.00"/>
    <junction id="LE3" type="dead_end" x="100.00" y="-100.00" incLanes="LJ1LE3_0 LJ1LE3_1" intLanes="" shape="100.00,-100.00 93.60,-100.00 100.00,-100.00"/>
    <junction id="LE4" type="dead_end" x="300.00" y="100.00" incLanes="LJ1LE4_0 LJ1LE4_1" intLanes="" shape="300.00,100.00 300.00,93.60 300.00,100.00"/>
    <junction id="LJ1" type="traffic_light" x="100.00" y="100.00" incLanes="LE1LJ1_0 LE1LJ1_1 LE1LJ1_2 LE4LJ1_0 LE4LJ1_1 LE4LJ1_2 LE3LJ1_0 LE3LJ1_1 LE3LJ1_2 LE2LJ1_0 LE2LJ1_1 LE2LJ1_2" intLanes=":LJ1_0_0 :LJ1_1_0 :LJ1_1_1 :LJ1_3_0 :LJ1_4_0 :LJ1_5_0 :LJ1_5_1 :LJ1_7_0 :LJ1_8_0 :LJ1_9_0 :LJ1_9_1 :LJ1_11_0 :LJ1_12_0 :LJ1_13_0 :LJ1_13_1 :LJ1_15_0 :LJ1_16_0" shape="90.40,113.60 106.40,113.60 107.20,111.38 108.20,110.60 109.60,110.04 111.40,109.71 113.60,109.60 113.60,93.60 111.38,92.80 110.60,91.80 110.04,90.40 109.71,88.60 109.60,86.40 93.60,86.40 92.80,88.62 91.80,89.40 90.40,89.96 88.60,90.29 86.40,90.40 86.40,106.40 88.62,107.20 89.40,108.20 89.96,109.60 90.29,111.40">
        <request index="0"  response="00000000000000000" foes="00000000001100000" cont="0"/>
        <request index="1"  response="00000000000000000" foes="11111100011100000" cont="0"/>
        <request index="2"  response="00000000000000000" foes="11111100011100000" cont="0"/>
        <request index="3"  response="00000011000000000" foes="11110011011100000" cont="0"/>
        <request index="4"  response="00000011000000000" foes="11000011000000000" cont="0"/>
        <request index="5"  response="00000111000001111" foes="11000111000001111" cont="0"/>
        <request index="6"  response="00000111000001111" foes="11000111000001111" cont="0"/>
        <request index="7"  response="00110111000001110" foes="00110111000001110" cont="0"/>
        <request index="8"  response="00000000000000000" foes="00110000000000000" cont="0"/>
        <request index="9"  response="00000000000000000" foes="11110000011111000" cont="0"/>
        <request index="10" response="00000000000000000" foes="11110000011111000" cont="0"/>
        <request index="11" response="00000000000000110" foes="11110000011100110" cont="0"/>
        <request index="12" response="00000000000000110" foes="00000000000000110" cont="0"/>
        <request index="13" response="00000111100001110" foes="00000111110001110" cont="0"/>
        <request index="14" response="00000111100001110" foes="00000111110001110" cont="0"/>
        <request index="15" response="00000111001111110" foes="00000111001111110" cont="0"/>
        <request index="16" response="00000111001111110" foes="00000111001111110" cont="0"/>
    </junction>

    <connection from="LE1LJ1" to="LJ1LE2" fromLane="0" toLane="0" via=":LJ1_0_0" tl="LJ1" linkIndex="0" dir="r" state="O"/>
    <connection from="LE1LJ1" to="LJ1LE3" fromLane="1" toLane="0" via=":LJ1_1_0" tl="LJ1" linkIndex="1" dir="s" state="O"/>
    <connection from="LE1LJ1" to="LJ1LE3" fromLane="1" toLane="1" via=":LJ1_1_1" tl="LJ1" linkIndex="2" dir="s" state="O"/>
    <connection from="LE1LJ1" to="LJ1LE4" fromLane="2" toLane="1" via=":LJ1_3_0" tl="LJ1" linkIndex="4" dir="l" state="o"/>
    <connection from="LE2LJ1" to="LJ1LE3" fromLane="0" toLane="0" via=":LJ1_12_0" tl="LJ1" linkIndex="15" dir="r" state="o"/>
    <connection from="LE2LJ1" to="LJ1LE4" fromLane="1" toLane="0" via=":LJ1_13_0" tl="LJ1" linkIndex="16" dir="s" state="o"/>
    <connection from="LE2LJ1" to="LJ1LE4" fromLane="1" toLane="1" via=":LJ1_13_1" tl="LJ1" linkIndex="17" dir="s" state="o"/>
    <connection from="LE2LJ1" to="LJ1LE1" fromLane="2" toLane="0" via=":LJ1_15_0" tl="LJ1" linkIndex="18" dir="l" state="o"/>
    <connection from="LE2LJ1" to="LJ1LE1" fromLane="2" toLane="1" via=":LJ1_16_0" tl="LJ1" linkIndex="19" dir="l" state="o"/>
    <connection from="LE3LJ1" to="LJ1LE4" fromLane="0" toLane="0" via=":LJ1_8_0" tl="LJ1" linkIndex="10" dir="r" state="O"/>
    <connection from="LE3LJ1" to="LJ1LE1" fromLane="1" toLane="0" via=":LJ1_9_0" tl="LJ1" linkIndex="11" dir="s" state="O"/>
    <connection from="LE3LJ1" to="LJ1LE1" fromLane="1" toLane="1" via=":LJ1_9_1" tl="LJ1" linkIndex="12" dir="s" state="O"/>
    <connection from="LE3LJ1" to="LJ1LE2" fromLane="2" toLane="1" via=":LJ1_11_0" tl="LJ1" linkIndex="14" dir="l" state="o"/>
    <connection from="LE4LJ1" to="LJ1LE1" fromLane="0" toLane="0" via=":LJ1_4_0" tl="LJ1" linkIndex="5" dir="r" state="o"/>
    <connection from="LE4LJ1" to="LJ1LE2" fromLane="1" toLane="0" via=":LJ1_5_0" tl="LJ1" linkIndex="6" dir="s" state="o"/>
    <connection from="LE4LJ1" to="LJ1LE2" fromLane="1" toLane="1" via=":LJ1_5_1" tl="LJ1" linkIndex="7" dir="s" state="o"/>
    <connection from="LE4LJ1" to="LJ1LE3" fromLane="2" toLane="1" via=":LJ1_7_0" tl="LJ1" linkIndex="9" dir="l" state="o"/>

    <connection from=":LJ1_0" to="LJ1LE2" fromLane="0" toLane="0" dir="r" state="M"/>
    <connection from=":LJ1_1" to="LJ1LE3" fromLane="0" toLane="0" dir="s" state="M"/>
    <connection from=":LJ1_1" to="LJ1LE3" fromLane="1" toLane="1" dir="s" state="M"/>
    <connection from=":LJ1_3" to="LJ1LE4" fromLane="0" toLane="1" dir="l" state="M"/>
    <connection from=":LJ1_4" to="LJ1LE1" fromLane="0" toLane="0" dir="r" state="M"/>
    <connection from=":LJ1_5" to="LJ1LE2" fromLane="0" toLane="0" dir="s" state="M"/>
    <connection from=":LJ1_5" to="LJ1LE2" fromLane="1" toLane="1" dir="s" state="M"/>
    <connection from=":LJ1_7" to="LJ1LE3" fromLane="0" toLane="1" dir="l" state="M"/>
    <connection from=":LJ1_8" to="LJ1LE4" fromLane="0" toLane="0" dir="r" state="M"/>
    <connection from=":LJ1_9" to="LJ1LE1" fromLane="0" toLane="0" dir="s" state="M"/>
    <connection from=":LJ1_9" to="LJ1LE1" fromLane="1" toLane="1" dir="s" state="M"/>
    <connection from=":LJ1_11" to="LJ1LE2" fromLane="0" toLane="1" dir="l" state="M"/>
    <connection from=":LJ1_12" to="LJ1LE3" fromLane="0" toLane="0" dir="r" state="M"/>
    <connection from=":LJ1_13" to="LJ1LE4" fromLane="0" toLane="0" dir="s" state="M"/>
    <connection from=":LJ1_13" to="LJ1LE4" fromLane="1" toLane="1" dir="s" state="M"/>
    <connection from=":LJ1_15" to="LJ1LE1" fromLane="0" toLane="0" dir="l" state="M"/>
    <connection from=":LJ1_16" to="LJ1LE1" fromLane="0" toLane="1" dir="l" state="M"/>

</net>
