<routes xmlns:xsi="http://www.w3.org/2001/XMLSchema-instance" xsi:noNamespaceSchemaLocation="http://sumo.dlr.de/xsd/routes_file.xsd">
    <vType id="SUMO_DEFAULT_TYPE" accel="0.8" decel="4.5" sigma="0" length="5" minGap="2" maxSpeed="70"/>
    <route id= "LE1LE2" edges="LE1LJ1 LJ1LE2"/>
    <route id= "LE1LE3" edges="LE1LJ1 LJ1LE3"/>
    <route id= "LE1LE4" edges="LE1LJ1 LJ1LE4"/>
    <route id= "LE2LE1" edges="LE2LJ1 LJ1LE1"/>
    <route id= "LE2LE3" edges="LE2LJ1 LJ1LE3"/>
    <route id= "LE2LE4" edges="LE2LJ1 LJ1LE4"/>
    <route id= "LE3LE1" edges="LE3LJ1 LJ1LE1"/>
    <route id= "LE3LE2" edges="LE3LJ1 LJ1LE2"/>
    <route id= "LE3LE4" edges="LE3LJ1 LJ1LE4"/>
    <route id= "LE4LE1" edges="LE4LJ1 LJ1LE1"/>
    <route id= "LE4LE2" edges="LE4LJ1 LJ1LE2"/>
    <route id= "LE4LE3" edges="LE4LJ1 LJ1LE3"/>
    
    <vehicle id="LE1LE3_0" type="SUMO_DEFAULT_TYPE" route="LE1LE3" depart="0" />
    <vehicle id="LE3LE2_1" type="SUMO_DEFAULT_TYPE" route="LE3LE2" depart="0" />
    <vehicle id="LE4LE1_2" type="SUMO_DEFAULT_TYPE" route="LE4LE1" depart="0" />
    <vehicle id="LE1LE2_3" type="SUMO_DEFAULT_TYPE" route="LE1LE2" depart="1" />
    <vehicle id="LE3LE2_4" type="SUMO_DEFAULT_TYPE" route="LE3LE2" depart="1" />
    <vehicle id="LE1LE4_5" type="SUMO_DEFAULT_TYPE" route="LE1LE4" depart="2" />
    <vehicle id="LE2LE4_6" type="SUMO_DEFAULT_TYPE" route="LE2LE4" depart="3" />
    <vehicle id="LE3LE4_7" type="SUMO_DEFAULT_TYPE" route="LE3LE4" depart="3" />
    <vehicle id="LE3LE2_8" type="SUMO_DEFAULT_TYPE" route="LE3LE2" depart="5" />
    <vehicle id="LE2LE4_9" type="SUMO_DEFAULT_TYPE" route="LE2LE4" depart="7" />
    <vehicle id="LE3LE1_10" type="SUMO_DEFAULT_TYPE" route="LE3LE1" depart="7" />
    <vehicle id="LE2LE3_11" type="SUMO_DEFAULT_TYPE" route="LE2LE3" depart="8" />
    <vehicle id="LE2LE3_12" type="SUMO_DEFAULT_TYPE" route="LE2LE3" depart="10" />
    <vehicle id="LE3LE1_13" type="SUMO_DEFAULT_TYPE" route="LE3LE1" depart="10" />
    <vehicle id="LE1LE4_14" type="SUMO_DEFAULT_TYPE" route="LE1LE4" depart="11" />
    <vehicle id="LE2LE3_15" type="SUMO_DEFAULT_TYPE" route="LE2LE3" depart="11" />
    <vehicle id="LE2LE3_16" type="SUMO_DEFAULT_TYPE" route="LE2LE3" depart="13" />
    <vehicle id="LE3LE4_17" type="SUMO_DEFAULT_TYPE" route="LE3LE4" depart="14" />
    <vehicle id="LE2LE4_18" type="SUMO_DEFAULT_TYPE" route="LE2LE4" depart="16" />
    <vehicle id="LE2LE1_19" type="SUMO_DEFAULT_TYPE" route="LE2LE1" depart="17" />
    <vehicle id="LE3LE4_20" type="SUMO_DEFAULT_TYPE" route="LE3LE4" depart="18" />
    <vehicle id="LE1LE4_21" type="SUMO_DEFAULT_TYPE" route="LE1LE4" depart="19" />
    <vehicle id="LE3LE2_22" type="SUMO_DEFAULT_TYPE" route="LE3LE2" depart="19" />
    <vehicle id="LE1LE2_23" type="SUMO_DEFAULT_TYPE" route="LE1LE2" depart="21" />
    <vehicle id="LE2LE3_24" type="SUMO_DEFAULT_TYPE" route="LE2LE3" depart="21" />
    <vehicle id="LE2LE4_25" type="SUMO_DEFAULT_TYPE" route="LE2LE4" depart="22" />
    <vehicle id="LE1LE4_26" type="SUMO_DEFAULT_TYPE" route="LE1LE4" depart="24" />
    <vehicle id="LE4LE1_27" type="SUMO_DEFAULT_TYPE" route="LE4LE1" depart="24" />
    <vehicle id="LE1LE2_28" type="SUMO_DEFAULT_TYPE" route="LE1LE2" depart="27" />
    <vehicle id="LE3LE1_29" type="SUMO_DEFAULT_TYPE" route="LE3LE1" depart="28" />
    <vehicle id="LE3LE4_30" type="SUMO_DEFAULT_TYPE" route="LE3LE4" depart="30" />
    <vehicle id="LE2LE1_31" type="SUMO_DEFAULT_TYPE" route="LE2LE1" depart="31" />
    <vehicle id="LE4LE2_32" type="SUMO_DEFAULT_TYPE" route="LE4LE2" depart="32" />
    <vehicle id="LE3LE2_33" type="SUMO_DEFAULT_TYPE" route="LE3LE2" depart="34" />
    <vehicle id="LE3LE2_34" type="SUMO_DEFAULT_TYPE" route="LE3LE2" depart="35" />
    <vehicle id="LE2LE1_35" type="SUMO_DEFAULT_TYPE" route="LE2LE1" depart="36" />
    <vehicle id="LE1LE3_36" type="SUMO_DEFAULT_TYPE" route="LE1LE3" depart="39" />
    <vehicle id="LE1LE3_37" type="SUMO_DEFAULT_TYPE" route="LE1LE3" depart="40" />
    <vehicle id="LE1LE3_38" type="SUMO_DEFAULT_TYPE" route="LE1LE3" depart="41" />
    <vehicle id="LE4LE1_39" type="SUMO_DEFAULT_TYPE" route="LE4LE1" depart="41" />
    <vehicle id="LE1LE2_40" type="SUMO_DEFAULT_TYPE" route="LE1LE2" depart="42" />
    <vehicle id="LE2LE3_41" type="SUMO_DEFAULT_TYPE" route="LE2LE3" depart="42" />
    <vehicle id="LE1LE3_42" type="SUMO_DEFAULT_TYPE" route="LE1LE3" depart="43" />
    <vehicle id="LE1LE4_43" type="SUMO_DEFAULT_TYPE" route="LE1LE4" depart="43" />
    <vehicle id="LE1LE2_44" type="SUMO_DEFAULT_TYPE" route="LE1LE2" depart="44" />
    <vehicle id="LE2LE1_45" type="SUMO_DEFAULT_TYPE" route="LE2LE1" depart="45" />
    <vehicle id="LE3LE2_46" type="SUMO_DEFAULT_TYPE" route="LE3LE2" depart="48" />
    <vehicle id="LE1LE3_47" type="SUMO_DEFAULT_TYPE" route="LE1LE3" depart="49" />
    <vehicle id="LE4LE2_48" type="SUMO_DEFAULT_TYPE" route="LE4LE2" depart="49" />
    <vehicle id="LE1LE2_49" type="SUMO_DEFAULT_TYPE" route="LE1LE2" depart="50" />
    <vehicle id="LE3LE4_50" type="SUMO_DEFAULT_TYPE" route="LE3LE4" depart="50" />
    <vehicle id="LE1LE3_51" type="SUMO_DEFAULT_TYPE" route="LE1LE3" depart="53" />
    <vehicle id="LE2LE1_52" type="SUMO_DEFAULT_TYPE" route="LE2LE1" depart="54" />
    <vehicle id="LE3LE4_53" type="SUMO_DEFAULT_TYPE" route="LE3LE4" depart="54" />
    <vehicle id="LE4LE2_54" type="SUMO_DEFAULT_TYPE" route="LE4LE2" depart="54" />
    <vehicle id="LE1LE2_55" type="SUMO_DEFAULT_TYPE" route="LE1LE2" depart="57" />
    <vehicle id="LE3LE2_56" type="SUMO_DEFAULT_TYPE" route="LE3LE2" depart="58" />
    <vehicle id="LE3LE2_57" type="SUMO_DEFAULT_TYPE" route="LE3LE2" depart="59" />
    <vehicle id="LE3LE4_58" type="SUMO_DEFAULT_TYPE" route="LE3LE4" depart="59" />
    <vehicle id="LE1LE2_59" type="SUMO_DEFAULT_TYPE" route="LE1LE2" depart="60" />
    <vehicle id="LE3LE4_60" type="SUMO_DEFAULT_TYPE" route="LE3LE4" depart="60" />
    <vehicle id="LE3LE2_61" type="SUMO_DEFAULT_TYPE" route="LE3LE2" depart="64" />
    <vehicle id="LE1LE3_62" type="SUMO_DEFAULT_TYPE" route="LE1LE3" depart="68" />
    <vehicle id="LE4LE2_63" type="SUMO_DEFAULT_TYPE" route="LE4LE2" depart="68" />
    <vehicle id="LE4LE3_64" type="SUMO_DEFAULT_TYPE" route="LE4LE3" depart="70" />
    <vehicle id="LE1LE2_65" type="SUMO_DEFAULT_TYPE" route="LE1LE2" depart="71" />
    <vehicle id="LE3LE1_66" type="SUMO_DEFAULT_TYPE" route="LE3LE1" depart="71" />
    <vehicle id="LE1LE2_67" type="SUMO_DEFAULT_TYPE" route="LE1LE2" depart="72" />
    <vehicle id="LE3LE1_68" type="SUMO_DEFAULT_TYPE" route="LE3LE1" depart="73" />
    <vehicle id="LE3LE4_69" type="SUMO_DEFAULT_TYPE" route="LE3LE4" depart="75" />
    <vehicle id="LE3LE4_70" type="SUMO_DEFAULT_TYPE" route="LE3LE4" depart="79" />
    <vehicle id="LE3LE1_71" type="SUMO_DEFAULT_TYPE" route="LE3LE1" depart="80" />
    <vehicle id="LE3LE4_72" type="SUMO_DEFAULT_TYPE" route="LE3LE4" depart="81" />
    <vehicle id="LE3LE2_73" type="SUMO_DEFAULT_TYPE" route="LE3LE2" depart="82" />
    <vehicle id="LE4LE3_74" type="SUMO_DEFAULT_TYPE" route="LE4LE3" depart="82" />
    <vehicle id="LE2LE4_75" type="SUMO_DEFAULT_TYPE" route="LE2LE4" depart="84" />
    <vehicle id="LE3LE1_76" type="SUMO_DEFAULT_TYPE" route="LE3LE1" depart="85" />
    <vehicle id="LE1LE3_77" type="SUMO_DEFAULT_TYPE" route="LE1LE3" depart="86" />
    <vehicle id="LE1LE4_78" type="SUMO_DEFAULT_TYPE" route="LE1LE4" depart="86" />
    <vehicle id="LE3LE2_79" type="SUMO_DEFAULT_TYPE" route="LE3LE2" depart="86" />
    <vehicle id="LE2LE4_80" type="SUMO_DEFAULT_TYPE" route="LE2LE4" depart="87" />
    <vehicle id="LE2LE4_81" type="SUMO_DEFAULT_TYPE" route="LE2LE4" depart="88" />
    <vehicle id="LE3LE1_82" type="SUMO_DEFAULT_TYPE" route="LE3LE1" depart="88" />
    <vehicle id="LE3LE4_83" type="SUMO_DEFAULT_TYPE" route="LE3LE4" depart="88" />
    <vehicle id="LE1LE3_84" type="SUMO_DEFAULT_TYPE" route="LE1LE3" depart="91" />
    <vehicle id="LE1LE4_85" type="SUMO_DEFAULT_TYPE" route="LE1LE4" depart="91" />
    <vehicle id="LE4LE1_86" type="SUMO_DEFAULT_TYPE" route="LE4LE1" depart="93" />
    <vehicle id="LE2LE4_87" type="SUMO_DEFAULT_TYPE" route="LE2LE4" depart="94" />
    <vehicle id="LE4LE3_88" type="SUMO_DEFAULT_TYPE" route="LE4LE3" depart="94" />
    <vehicle id="LE3LE4_89" type="SUMO_DEFAULT_TYPE" route="LE3LE4" depart="95" />
    <vehicle id="LE4LE1_90" type="SUMO_DEFAULT_TYPE" route="LE4LE1" depart="95" />
    <vehicle id="LE3LE2_91" type="SUMO_DEFAULT_TYPE" route="LE3LE2" depart="96" />
    <vehicle id="LE1LE3_92" type="SUMO_DEFAULT_TYPE" route="LE1LE3" depart="97" />
    <vehicle id="LE2LE3_93" type="SUMO_DEFAULT_TYPE" route="LE2LE3" depart="97" />
    <vehicle id="LE4LE2_94" type="SUMO_DEFAULT_TYPE" route="LE4LE2" depart="97" />
    <vehicle id="LE3LE1_95" type="SUMO_DEFAULT_TYPE" route="LE3LE1" depart="98" />
    <vehicle id="LE3LE4_96" type="SUMO_DEFAULT_TYPE" route="LE3LE4" depart="98" />
    <vehicle id="LE4LE1_97" type="SUMO_DEFAULT_TYPE" route="LE4LE1" depart="98" />
    <vehicle id="LE2LE4_98" type="SUMO_DEFAULT_TYPE" route="LE2LE4" depart="99" />
    <vehicle id="LE1LE2_99" type="SUMO_DEFAULT_TYPE" route="LE1LE2" depart="103" />
    <vehicle id="LE2LE3_100" type="SUMO_DEFAULT_TYPE" route="LE2LE3" depart="103" />
    <vehicle id="LE3LE4_101" type="SUMO_DEFAULT_TYPE" route="LE3LE4" depart="103" />
    <vehicle id="LE1LE3_102" type="SUMO_DEFAULT_TYPE" route="LE1LE3" depart="105" />
    <vehicle id="LE3LE4_103" type="SUMO_DEFAULT_TYPE" route="LE3LE4" depart="106" />
    <vehicle id="LE3LE4_104" type="SUMO_DEFAULT_TYPE" route="LE3LE4" depart="109" />
    <vehicle id="LE1LE4_105" type="SUMO_DEFAULT_TYPE" route="LE1LE4" depart="110" />
    <vehicle id="LE2LE4_106" type="SUMO_DEFAULT_TYPE" route="LE2LE4" depart="114" />
    <vehicle id="LE3LE1_107" type="SUMO_DEFAULT_TYPE" route="LE3LE1" depart="114" />
    <vehicle id="LE4LE3_108" type="SUMO_DEFAULT_TYPE" route="LE4LE3" depart="114" />
    <vehicle id="LE4LE3_109" type="SUMO_DEFAULT_TYPE" route="LE4LE3" depart="115" />
    <vehicle id="LE1LE2_110" type="SUMO_DEFAULT_TYPE" route="LE1LE2" depart="116" />
    <vehicle id="LE3LE1_111" type="SUMO_DEFAULT_TYPE" route="LE3LE1" depart="116" />
    <vehicle id="LE4LE1_112" type="SUMO_DEFAULT_TYPE" route="LE4LE1" depart="116" />
    <vehicle id="LE2LE3_113" type="SUMO_DEFAULT_TYPE" route="LE2LE3" depart="117" />
    <vehicle id="LE1LE3_114" type="SUMO_DEFAULT_TYPE" route="LE1LE3" depart="118" />
    <vehicle id="LE2LE1_115" type="SUMO_DEFAULT_TYPE" route="LE2LE1" depart="118" />
    <vehicle id="LE1LE3_116" type="SUMO_DEFAULT_TYPE" route="LE1LE3" depart="119" />
    <vehicle id="LE4LE1_117" type="SUMO_DEFAULT_TYPE" route="LE4LE1" depart="119" />
    <vehicle id="LE3LE1_118" type="SUMO_DEFAULT_TYPE" route="LE3LE1" depart="120" />
    <vehicle id="LE4LE2_119" type="SUMO_DEFAULT_TYPE" route="LE4LE2" depart="120" />
    <vehicle id="LE1LE2_120" type="SUMO_DEFAULT_TYPE" route="LE1LE2" depart="121" />
    <vehicle id="LE1LE3_121" type="SUMO_DEFAULT_TYPE" route="LE1LE3" depart="123" />
    <vehicle id="LE3LE1_122" type="SUMO_DEFAULT_TYPE" route="LE3LE1" depart="123" />
    <vehicle id="LE1LE3_123" type="SUMO_DEFAULT_TYPE" route="LE1LE3" depart="124" />
    <vehicle id="LE3LE4_124" type="SUMO_DEFAULT_TYPE" route="LE3LE4" depart="124" />
    <vehicle id="LE2LE4_125" type="SUMO_DEFAULT_TYPE" route="LE2LE4" depart="125" />
    <vehicle id="LE3LE1_126" type="SUMO_DEFAULT_TYPE" route="LE3LE1" depart="125" />
    <vehicle id="LE1LE4_127" type="SUMO_DEFAULT_TYPE" route="LE1LE4" depart="128" />
    <vehicle id="LE3LE2_128" type="SUMO_DEFAULT_TYPE" route="LE3LE2" depart="128" />
    <vehicle id="LE3LE4_129" type="SUMO_DEFAULT_TYPE" route="LE3LE4" depart="129" />
    <vehicle id="LE1LE4_130" type="SUMO_DEFAULT_TYPE" route="LE1LE4" depart="130" />
    <vehicle id="LE4LE2_131" type="SUMO_DEFAULT_TYPE" route="LE4LE2" depart="131" />
    <vehicle id="LE1LE2_132" type="SUMO_DEFAULT_TYPE" route="LE1LE2" depart="134" />
    <vehicle id="LE1LE3_133" type="SUMO_DEFAULT_TYPE" route="LE1LE3" depart="134" />
    <vehicle id="LE2LE3_134" type="SUMO_DEFAULT_TYPE" route="LE2LE3" depart="135" />
    <vehicle id="LE2LE4_135" type="SUMO_DEFAULT_TYPE" route="LE2LE4" depart="135" />
    <vehicle id="LE1LE3_136" type="SUMO_DEFAULT_TYPE" route="LE1LE3" depart="138" />
    <vehicle id="LE3LE2_137" type="SUMO_DEFAULT_TYPE" route="LE3LE2" depart="138" />
    <vehicle id="LE2LE1_138" type="SUMO_DEFAULT_TYPE" route="LE2LE1" depart="141" />
    <vehicle id="LE2LE4_139" type="SUMO_DEFAULT_TYPE" route="LE2LE4" depart="143" />
    <vehicle id="LE3LE2_140" type="SUMO_DEFAULT_TYPE" route="LE3LE2" depart="144" />
    <vehicle id="LE4LE2_141" type="SUMO_DEFAULT_TYPE" route="LE4LE2" depart="144" />
    <vehicle id="LE3LE2_142" type="SUMO_DEFAULT_TYPE" route="LE3LE2" depart="145" />
    <vehicle id="LE1LE4_143" type="SUMO_DEFAULT_TYPE" route="LE1LE4" depart="150" />
    <vehicle id="LE3LE2_144" type="SUMO_DEFAULT_TYPE" route="LE3LE2" depart="150" />
    <vehicle id="LE3LE2_145" type="SUMO_DEFAULT_TYPE" route="LE3LE2" depart="151" />
    <vehicle id="LE1LE2_146" type="SUMO_DEFAULT_TYPE" route="LE1LE2" depart="153" />
    <vehicle id="LE1LE4_147" type="SUMO_DEFAULT_TYPE" route="LE1LE4" depart="155" />
    <vehicle id="LE1LE4_148" type="SUMO_DEFAULT_TYPE" route="LE1LE4" depart="156" />
    <vehicle id="LE2LE4_149" type="SUMO_DEFAULT_TYPE" route="LE2LE4" depart="156" />
    <vehicle id="LE3LE1_150" type="SUMO_DEFAULT_TYPE" route="LE3LE1" depart="156" />
    <vehicle id="LE3LE2_151" type="SUMO_DEFAULT_TYPE" route="LE3LE2" depart="158" />
    <vehicle id="LE1LE2_152" type="SUMO_DEFAULT_TYPE" route="LE1LE2" depart="159" />
    <vehicle id="LE3LE2_153" type="SUMO_DEFAULT_TYPE" route="LE3LE2" depart="159" />
    <vehicle id="LE2LE3_154" type="SUMO_DEFAULT_TYPE" route="LE2LE3" depart="160" />
    <vehicle id="LE1LE2_155" type="SUMO_DEFAULT_TYPE" route="LE1LE2" depart="161" />
    <vehicle id="LE1LE4_156" type="SUMO_DEFAULT_TYPE" route="LE1LE4" depart="161" />
    <vehicle id="LE2LE4_157" type="SUMO_DEFAULT_TYPE" route="LE2LE4" depart="161" />
    <vehicle id="LE3LE2_158" type="SUMO_DEFAULT_TYPE" route="LE3LE2" depart="161" />
    <vehicle id="LE2LE4_159" type="SUMO_DEFAULT_TYPE" route="LE2LE4" depart="163" />
    <vehicle id="LE3LE1_160" type="SUMO_DEFAULT_TYPE" route="LE3LE1" depart="163" />
    <vehicle id="LE4LE2_161" type="SUMO_DEFAULT_TYPE" route="LE4LE2" depart="164" />
    <vehicle id="LE1LE3_162" type="SUMO_DEFAULT_TYPE" route="LE1LE3" depart="165" />
    <vehicle id="LE2LE3_163" type="SUMO_DEFAULT_TYPE" route="LE2LE3" depart="165" />
    <vehicle id="LE1LE2_164" type="SUMO_DEFAULT_TYPE" route="LE1LE2" depart="167" />
    <vehicle id="LE3LE2_165" type="SUMO_DEFAULT_TYPE" route="LE3LE2" depart="169" />
    <vehicle id="LE4LE2_166" type="SUMO_DEFAULT_TYPE" route="LE4LE2" depart="170" />
    <vehicle id="LE1LE4_167" type="SUMO_DEFAULT_TYPE" route="LE1LE4" depart="175" />
    <vehicle id="LE2LE1_168" type="SUMO_DEFAULT_TYPE" route="LE2LE1" depart="175" />
    <vehicle id="LE1LE2_169" type="SUMO_DEFAULT_TYPE" route="LE1LE2" depart="176" />
    <vehicle id="LE3LE4_170" type="SUMO_DEFAULT_TYPE" route="LE3LE4" depart="176" />
    <vehicle id="LE4LE2_171" type="SUMO_DEFAULT_TYPE" route="LE4LE2" depart="176" />
    <vehicle id="LE1LE4_172" type="SUMO_DEFAULT_TYPE" route="LE1LE4" depart="177" />
    <vehicle id="LE3LE2_173" type="SUMO_DEFAULT_TYPE" route="LE3LE2" depart="177" />
    <vehicle id="LE3LE4_174" type="SUMO_DEFAULT_TYPE" route="LE3LE4" depart="177" />
    <vehicle id="LE1LE3_175" type="SUMO_DEFAULT_TYPE" route="LE1LE3" depart="179" />
    <vehicle id="LE2LE3_176" type="SUMO_DEFAULT_TYPE" route="LE2LE3" depart="179" />
    <vehicle id="LE2LE4_177" type="SUMO_DEFAULT_TYPE" route="LE2LE4" depart="179" />
    <vehicle id="LE1LE2_178" type="SUMO_DEFAULT_TYPE" route="LE1LE2" depart="180" />
    <vehicle id="LE1LE4_179" type="SUMO_DEFAULT_TYPE" route="LE1LE4" depart="180" />
    <vehicle id="LE3LE2_180" type="SUMO_DEFAULT_TYPE" route="LE3LE2" depart="180" />
    <vehicle id="LE3LE4_181" type="SUMO_DEFAULT_TYPE" route="LE3LE4" depart="180" />
    <vehicle id="LE1LE2_182" type="SUMO_DEFAULT_TYPE" route="LE1LE2" depart="181" />
    <vehicle id="LE3LE4_183" type="SUMO_DEFAULT_TYPE" route="LE3LE4" depart="181" />
    <vehicle id="LE4LE1_184" type="SUMO_DEFAULT_TYPE" route="LE4LE1" depart="182" />
    <vehicle id="LE2LE4_185" type="SUMO_DEFAULT_TYPE" route="LE2LE4" depart="183" />
    <vehicle id="LE1LE4_186" type="SUMO_DEFAULT_TYPE" route="LE1LE4" depart="184" />
    <vehicle id="LE3LE1_187" type="SUMO_DEFAULT_TYPE" route="LE3LE1" depart="184" />
    <vehicle id="LE1LE3_188" type="SUMO_DEFAULT_TYPE" route="LE1LE3" depart="185" />
    <vehicle id="LE4LE2_189" type="SUMO_DEFAULT_TYPE" route="LE4LE2" depart="185" />
    <vehicle id="LE1LE2_190" type="SUMO_DEFAULT_TYPE" route="LE1LE2" depart="186" />
    <vehicle id="LE3LE1_191" type="SUMO_DEFAULT_TYPE" route="LE3LE1" depart="186" />
    <vehicle id="LE2LE3_192" type="SUMO_DEFAULT_TYPE" route="LE2LE3" depart="187" />
    <vehicle id="LE3LE4_193" type="SUMO_DEFAULT_TYPE" route="LE3LE4" depart="187" />
    <vehicle id="LE1LE3_194" type="SUMO_DEFAULT_TYPE" route="LE1LE3" depart="192" />
    <vehicle id="LE1LE4_195" type="SUMO_DEFAULT_TYPE" route="LE1LE4" depart="193" />
    <vehicle id="LE3LE2_196" type="SUMO_DEFAULT_TYPE" route="LE3LE2" depart="193" />
    <vehicle id="LE1LE4_197" type="SUMO_DEFAULT_TYPE" route="LE1LE4" depart="194" />
    <vehicle id="LE1LE4_198" type="SUMO_DEFAULT_TYPE" route="LE1LE4" depart="195" />
    <vehicle id="LE3LE1_199" type="SUMO_DEFAULT_TYPE" route="LE3LE1" depart="195" />
    <vehicle id="LE3LE2_200" type="SUMO_DEFAULT_TYPE" route="LE3LE2" depart="196" />
    <vehicle id="LE4LE3_201" type="SUMO_DEFAULT_TYPE" route="LE4LE3" depart="197" />
    <vehicle id="LE3LE4_202" type="SUMO_DEFAULT_TYPE" route="LE3LE4" depart="198" />
    <vehicle id="LE3LE1_203" type="SUMO_DEFAULT_TYPE" route="LE3LE1" depart="200" />
    <vehicle id="LE1LE2_204" type="SUMO_DEFAULT_TYPE" route="LE1LE2" depart="202" />
    <vehicle id="LE1LE4_205" type="SUMO_DEFAULT_TYPE" route="LE1LE4" depart="202" />
    <vehicle id="LE1LE2_206" type="SUMO_DEFAULT_TYPE" route="LE1LE2" depart="203" />
    <vehicle id="LE1LE3_207" type="SUMO_DEFAULT_TYPE" route="LE1LE3" depart="203" />
    <vehicle id="LE2LE4_208" type="SUMO_DEFAULT_TYPE" route="LE2LE4" depart="204" />
    <vehicle id="LE3LE1_209" type="SUMO_DEFAULT_TYPE" route="LE3LE1" depart="206" />
    <vehicle id="LE1LE3_210" type="SUMO_DEFAULT_TYPE" route="LE1LE3" depart="209" />
    <vehicle id="LE3LE4_211" type="SUMO_DEFAULT_TYPE" route="LE3LE4" depart="209" />
    <vehicle id="LE2LE1_212" type="SUMO_DEFAULT_TYPE" route="LE2LE1" depart="210" />
    <vehicle id="LE2LE3_213" type="SUMO_DEFAULT_TYPE" route="LE2LE3" depart="211" />
    <vehicle id="LE3LE4_214" type="SUMO_DEFAULT_TYPE" route="LE3LE4" depart="211" />
    <vehicle id="LE4LE3_215" type="SUMO_DEFAULT_TYPE" route="LE4LE3" depart="211" />
    <vehicle id="LE3LE2_216" type="SUMO_DEFAULT_TYPE" route="LE3LE2" depart="213" />
    <vehicle id="LE1LE2_217" type="SUMO_DEFAULT_TYPE" route="LE1LE2" depart="214" />
    <vehicle id="LE3LE1_218" type="SUMO_DEFAULT_TYPE" route="LE3LE1" depart="214" />
    <vehicle id="LE3LE2_219" type="SUMO_DEFAULT_TYPE" route="LE3LE2" depart="215" />
    <vehicle id="LE1LE3_220" type="SUMO_DEFAULT_TYPE" route="LE1LE3" depart="217" />
    <vehicle id="LE1LE4_221" type="SUMO_DEFAULT_TYPE" route="LE1LE4" depart="218" />
    <vehicle id="LE3LE1_222" type="SUMO_DEFAULT_TYPE" route="LE3LE1" depart="218" />
    <vehicle id="LE4LE1_223" type="SUMO_DEFAULT_TYPE" route="LE4LE1" depart="219" />
    <vehicle id="LE1LE2_224" type="SUMO_DEFAULT_TYPE" route="LE1LE2" depart="220" />
    <vehicle id="LE1LE3_225" type="SUMO_DEFAULT_TYPE" route="LE1LE3" depart="220" />
    <vehicle id="LE3LE4_226" type="SUMO_DEFAULT_TYPE" route="LE3LE4" depart="220" />
    <vehicle id="LE1LE3_227" type="SUMO_DEFAULT_TYPE" route="LE1LE3" depart="222" />
    <vehicle id="LE1LE4_228" type="SUMO_DEFAULT_TYPE" route="LE1LE4" depart="222" />
    <vehicle id="LE4LE3_229" type="SUMO_DEFAULT_TYPE" route="LE4LE3" depart="223" />
    <vehicle id="LE1LE4_230" type="SUMO_DEFAULT_TYPE" route="LE1LE4" depart="224" />
    <vehicle id="LE2LE4_231" type="SUMO_DEFAULT_TYPE" route="LE2LE4" depart="225" />
    <vehicle id="LE2LE4_232" type="SUMO_DEFAULT_TYPE" route="LE2LE4" depart="227" />
    <vehicle id="LE4LE3_233" type="SUMO_DEFAULT_TYPE" route="LE4LE3" depart="227" />
    <vehicle id="LE1LE2_234" type="SUMO_DEFAULT_TYPE" route="LE1LE2" depart="229" />
    <vehicle id="LE3LE2_235" type="SUMO_DEFAULT_TYPE" route="LE3LE2" depart="229" />
    <vehicle id="LE2LE1_236" type="SUMO_DEFAULT_TYPE" route="LE2LE1" depart="230" />
    <vehicle id="LE3LE1_237" type="SUMO_DEFAULT_TYPE" route="LE3LE1" depart="230" />
    <vehicle id="LE1LE3_238" type="SUMO_DEFAULT_TYPE" route="LE1LE3" depart="231" />
    <vehicle id="LE1LE4_239" type="SUMO_DEFAULT_TYPE" route="LE1LE4" depart="231" />
    <vehicle id="LE2LE4_240" type="SUMO_DEFAULT_TYPE" route="LE2LE4" depart="231" />
    <vehicle id="LE2LE4_241" type="SUMO_DEFAULT_TYPE" route="LE2LE4" depart="232" />
    <vehicle id="LE3LE1_242" type="SUMO_DEFAULT_TYPE" route="LE3LE1" depart="233" />
    <vehicle id="LE4LE3_243" type="SUMO_DEFAULT_TYPE" route="LE4LE3" depart="233" />
    <vehicle id="LE1LE4_244" type="SUMO_DEFAULT_TYPE" route="LE1LE4" depart="234" />
    <vehicle id="LE4LE1_245" type="SUMO_DEFAULT_TYPE" route="LE4LE1" depart="234" />
    <vehicle id="LE2LE4_246" type="SUMO_DEFAULT_TYPE" route="LE2LE4" depart="235" />
    <vehicle id="LE2LE3_247" type="SUMO_DEFAULT_TYPE" route="LE2LE3" depart="236" />
    <vehicle id="LE2LE4_248" type="SUMO_DEFAULT_TYPE" route="LE2LE4" depart="236" />
    <vehicle id="LE1LE2_249" type="SUMO_DEFAULT_TYPE" route="LE1LE2" depart="237" />
    <vehicle id="LE3LE1_250" type="SUMO_DEFAULT_TYPE" route="LE3LE1" depart="237" />
    <vehicle id="LE1LE3_251" type="SUMO_DEFAULT_TYPE" route="LE1LE3" depart="238" />
    <vehicle id="LE3LE2_252" type="SUMO_DEFAULT_TYPE" route="LE3LE2" depart="238" />
    <vehicle id="LE2LE4_253" type="SUMO_DEFAULT_TYPE" route="LE2LE4" depart="240" />
    <vehicle id="LE2LE3_254" type="SUMO_DEFAULT_TYPE" route="LE2LE3" depart="241" />
    <vehicle id="LE2LE4_255" type="SUMO_DEFAULT_TYPE" route="LE2LE4" depart="242" />
    <vehicle id="LE3LE4_256" type="SUMO_DEFAULT_TYPE" route="LE3LE4" depart="243" />
    <vehicle id="LE2LE3_257" type="SUMO_DEFAULT_TYPE" route="LE2LE3" depart="244" />
    <vehicle id="LE2LE1_258" type="SUMO_DEFAULT_TYPE" route="LE2LE1" depart="247" />
    <vehicle id="LE1LE4_259" type="SUMO_DEFAULT_TYPE" route="LE1LE4" depart="249" />
    <vehicle id="LE2LE3_260" type="SUMO_DEFAULT_TYPE" route="LE2LE3" depart="250" />
    <vehicle id="LE3LE2_261" type="SUMO_DEFAULT_TYPE" route="LE3LE2" depart="251" />
    <vehicle id="LE4LE1_262" type="SUMO_DEFAULT_TYPE" route="LE4LE1" depart="252" />
    <vehicle id="LE3LE2_263" type="SUMO_DEFAULT_TYPE" route="LE3LE2" depart="253" />
    <vehicle id="LE1LE4_264" type="SUMO_DEFAULT_TYPE" route="LE1LE4" depart="255" />
    <vehicle id="LE3LE2_265" type="SUMO_DEFAULT_TYPE" route="LE3LE2" depart="256" />
    <vehicle id="LE3LE2_266" type="SUMO_DEFAULT_TYPE" route="LE3LE2" depart="258" />
    <vehicle id="LE4LE1_267" type="SUMO_DEFAULT_TYPE" route="LE4LE1" depart="260" />
    <vehicle id="LE1LE4_268" type="SUMO_DEFAULT_TYPE" route="LE1LE4" depart="261" />
    <vehicle id="LE4LE1_269" type="SUMO_DEFAULT_TYPE" route="LE4LE1" depart="261" />
    <vehicle id="LE1LE4_270" type="SUMO_DEFAULT_TYPE" route="LE1LE4" depart="264" />
    <vehicle id="LE2LE1_271" type="SUMO_DEFAULT_TYPE" route="LE2LE1" depart="265" />
    <vehicle id="LE1LE2_272" type="SUMO_DEFAULT_TYPE" route="LE1LE2" depart="267" />
    <vehicle id="LE2LE1_273" type="SUMO_DEFAULT_TYPE" route="LE2LE1" depart="267" />
    <vehicle id="LE3LE2_274" type="SUMO_DEFAULT_TYPE" route="LE3LE2" depart="267" />
    <vehicle id="LE3LE1_275" type="SUMO_DEFAULT_TYPE" route="LE3LE1" depart="269" />
    <vehicle id="LE2LE3_276" type="SUMO_DEFAULT_TYPE" route="LE2LE3" depart="271" />
    <vehicle id="LE3LE2_277" type="SUMO_DEFAULT_TYPE" route="LE3LE2" depart="272" />
    <vehicle id="LE2LE3_278" type="SUMO_DEFAULT_TYPE" route="LE2LE3" depart="274" />
    <vehicle id="LE4LE2_279" type="SUMO_DEFAULT_TYPE" route="LE4LE2" depart="274" />
    <vehicle id="LE1LE3_280" type="SUMO_DEFAULT_TYPE" route="LE1LE3" depart="276" />
    <vehicle id="LE3LE4_281" type="SUMO_DEFAULT_TYPE" route="LE3LE4" depart="276" />
    <vehicle id="LE1LE4_282" type="SUMO_DEFAULT_TYPE" route="LE1LE4" depart="277" />
    <vehicle id="LE2LE4_283" type="SUMO_DEFAULT_TYPE" route="LE2LE4" depart="277" />
    <vehicle id="LE2LE4_284" type="SUMO_DEFAULT_TYPE" route="LE2LE4" depart="280" />
    <vehicle id="LE4LE1_285" type="SUMO_DEFAULT_TYPE" route="LE4LE1" depart="280" />
    <vehicle id="LE1LE3_286" type="SUMO_DEFAULT_TYPE" route="LE1LE3" depart="281" />
    <vehicle id="LE3LE2_287" type="SUMO_DEFAULT_TYPE" route="LE3LE2" depart="282" />
    <vehicle id="LE3LE4_288" type="SUMO_DEFAULT_TYPE" route="LE3LE4" depart="282" />
    <vehicle id="LE2LE4_289" type="SUMO_DEFAULT_TYPE" route="LE2LE4" depart="283" />
    <vehicle id="LE4LE2_290" type="SUMO_DEFAULT_TYPE" route="LE4LE2" depart="283" />
    <vehicle id="LE3LE2_291" type="SUMO_DEFAULT_TYPE" route="LE3LE2" depart="284" />
    <vehicle id="LE1LE3_292" type="SUMO_DEFAULT_TYPE" route="LE1LE3" depart="285" />
    <vehicle id="LE2LE1_293" type="SUMO_DEFAULT_TYPE" route="LE2LE1" depart="285" />
    <vehicle id="LE3LE4_294" type="SUMO_DEFAULT_TYPE" route="LE3LE4" depart="285" />
    <vehicle id="LE4LE2_295" type="SUMO_DEFAULT_TYPE" route="LE4LE2" depart="285" />
    <vehicle id="LE3LE1_296" type="SUMO_DEFAULT_TYPE" route="LE3LE1" depart="286" />
    <vehicle id="LE3LE2_297" type="SUMO_DEFAULT_TYPE" route="LE3LE2" depart="287" />
    <vehicle id="LE2LE4_298" type="SUMO_DEFAULT_TYPE" route="LE2LE4" depart="288" />
    <vehicle id="LE1LE3_299" type="SUMO_DEFAULT_TYPE" route="LE1LE3" depart="289" />
    <vehicle id="LE1LE4_300" type="SUMO_DEFAULT_TYPE" route="LE1LE4" depart="290" />
    <vehicle id="LE4LE3_301" type="SUMO_DEFAULT_TYPE" route="LE4LE3" depart="290" />
    <vehicle id="LE2LE4_302" type="SUMO_DEFAULT_TYPE" route="LE2LE4" depart="291" />
    <vehicle id="LE4LE1_303" type="SUMO_DEFAULT_TYPE" route="LE4LE1" depart="291" />
    <vehicle id="LE3LE2_304" type="SUMO_DEFAULT_TYPE" route="LE3LE2" depart="292" />
    <vehicle id="LE1LE3_305" type="SUMO_DEFAULT_TYPE" route="LE1LE3" depart="293" />
    <vehicle id="LE1LE4_306" type="SUMO_DEFAULT_TYPE" route="LE1LE4" depart="293" />
    <vehicle id="LE4LE3_307" type="SUMO_DEFAULT_TYPE" route="LE4LE3" depart="293" />
    <vehicle id="LE3LE2_308" type="SUMO_DEFAULT_TYPE" route="LE3LE2" depart="294" />
    <vehicle id="LE2LE3_309" type="SUMO_DEFAULT_TYPE" route="LE2LE3" depart="295" />
    <vehicle id="LE2LE4_310" type="SUMO_DEFAULT_TYPE" route="LE2LE4" depart="297" />
    <vehicle id="LE1LE2_311" type="SUMO_DEFAULT_TYPE" route="LE1LE2" depart="302" />
    <vehicle id="LE1LE2_312" type="SUMO_DEFAULT_TYPE" route="LE1LE2" depart="303" />
    <vehicle id="LE3LE2_313" type="SUMO_DEFAULT_TYPE" route="LE3LE2" depart="304" />
    <vehicle id="LE1LE4_314" type="SUMO_DEFAULT_TYPE" route="LE1LE4" depart="307" />
    <vehicle id="LE1LE3_315" type="SUMO_DEFAULT_TYPE" route="LE1LE3" depart="308" />
    <vehicle id="LE2LE3_316" type="SUMO_DEFAULT_TYPE" route="LE2LE3" depart="309" />
    <vehicle id="LE4LE3_317" type="SUMO_DEFAULT_TYPE" route="LE4LE3" depart="310" />
    <vehicle id="LE3LE2_318" type="SUMO_DEFAULT_TYPE" route="LE3LE2" depart="311" />
    <vehicle id="LE3LE4_319" type="SUMO_DEFAULT_TYPE" route="LE3LE4" depart="311" />
    <vehicle id="LE1LE2_320" type="SUMO_DEFAULT_TYPE" route="LE1LE2" depart="313" />
    <vehicle id="LE1LE3_321" type="SUMO_DEFAULT_TYPE" route="LE1LE3" depart="313" />
    <vehicle id="LE4LE2_322" type="SUMO_DEFAULT_TYPE" route="LE4LE2" depart="313" />
    <vehicle id="LE3LE1_323" type="SUMO_DEFAULT_TYPE" route="LE3LE1" depart="314" />
    <vehicle id="LE3LE4_324" type="SUMO_DEFAULT_TYPE" route="LE3LE4" depart="314" />
    <vehicle id="LE3LE4_325" type="SUMO_DEFAULT_TYPE" route="LE3LE4" depart="316" />
    <vehicle id="LE4LE1_326" type="SUMO_DEFAULT_TYPE" route="LE4LE1" depart="316" />
    <vehicle id="LE2LE3_327" type="SUMO_DEFAULT_TYPE" route="LE2LE3" depart="320" />
    <vehicle id="LE1LE3_328" type="SUMO_DEFAULT_TYPE" route="LE1LE3" depart="322" />
    <vehicle id="LE1LE4_329" type="SUMO_DEFAULT_TYPE" route="LE1LE4" depart="322" />
    <vehicle id="LE2LE1_330" type="SUMO_DEFAULT_TYPE" route="LE2LE1" depart="322" />
    <vehicle id="LE2LE4_331" type="SUMO_DEFAULT_TYPE" route="LE2LE4" depart="322" />
    <vehicle id="LE2LE3_332" type="SUMO_DEFAULT_TYPE" route="LE2LE3" depart="325" />
    <vehicle id="LE3LE1_333" type="SUMO_DEFAULT_TYPE" route="LE3LE1" depart="325" />
    <vehicle id="LE1LE2_334" type="SUMO_DEFAULT_TYPE" route="LE1LE2" depart="326" />
    <vehicle id="LE1LE4_335" type="SUMO_DEFAULT_TYPE" route="LE1LE4" depart="328" />
    <vehicle id="LE3LE4_336" type="SUMO_DEFAULT_TYPE" route="LE3LE4" depart="328" />
    <vehicle id="LE2LE4_337" type="SUMO_DEFAULT_TYPE" route="LE2LE4" depart="329" />
    <vehicle id="LE3LE1_338" type="SUMO_DEFAULT_TYPE" route="LE3LE1" depart="329" />
    <vehicle id="LE4LE2_339" type="SUMO_DEFAULT_TYPE" route="LE4LE2" depart="329" />
    <vehicle id="LE1LE2_340" type="SUMO_DEFAULT_TYPE" route="LE1LE2" depart="330" />