<routes xmlns:xsi="http://www.w3.org/2001/XMLSchema-instance" xsi:noNamespaceSchemaLocation="http://sumo.dlr.de/xsd/routes_file.xsd">
                    <vType id="SUMO_DEFAULT_TYPE" accel="0.8" decel="4.5" sigma="0" length="5" minGap="2" maxSpeed="70"/>
                    <route id= "LE1LE2" edges="LE1LJ1 LJ1LE2" />
                    <route id= "LE1LE3" edges="LE1LJ1 LJ1LE3" />
                    <route id= "LE1LE4" edges="LE1LJ1 LJ1LE4" />
                    <route id= "LE2LE1" edges="LE2LJ1 LJ1LE1" />
                    <route id= "LE2LE3" edges="LE2LJ1 LJ1LE3" />
                    <route id= "LE2LE4" edges="LE2LJ1 LJ1LE4" />
                    <route id= "LE3LE1" edges="LE3LJ1 LJ1LE1" />
                    <route id= "LE3LE2" edges="LE3LJ1 LJ1LE2" />
                    <route id= "LE3LE4" edges="LE3LJ1 LJ1LE4" />
                    <route id= "LE4LE1" edges="LE4LJ1 LJ1LE1" />
                    <route id= "LE4LE2" edges="LE4LJ1 LJ1LE2" />
                    <route id= "LE4LE3" edges="LE4LJ1 LJ1LE3" />
                  
    <vehicle id="LE2LE4_0_0" type="SUMO_DEFAULT_TYPE" route="LE2LE4" depart="0" departLane="best"/>
    <vehicle id="LE1LE2_1_0" type="SUMO_DEFAULT_TYPE" route="LE1LE2" depart="1" departLane="best"/>
    <vehicle id="LE4LE1_2_0" type="SUMO_DEFAULT_TYPE" route="LE4LE1" depart="3" departLane="best"/>
    <vehicle id="LE3LE4_3_0" type="SUMO_DEFAULT_TYPE" route="LE3LE4" depart="4" departLane="best"/>
    <vehicle id="LE3LE2_4_0" type="SUMO_DEFAULT_TYPE" route="LE3LE2" depart="5" departLane="best"/>
    <vehicle id="LE1LE2_5_0" type="SUMO_DEFAULT_TYPE" route="LE1LE2" depart="6" departLane="best"/>
    <vehicle id="LE2LE1_6_0" type="SUMO_DEFAULT_TYPE" route="LE2LE1" depart="6" departLane="best"/>
    <vehicle id="LE4LE1_7_0" type="SUMO_DEFAULT_TYPE" route="LE4LE1" depart="6" departLane="best"/>
    <vehicle id="LE4LE3_8_0" type="SUMO_DEFAULT_TYPE" route="LE4LE3" depart="7" departLane="best"/>
    <vehicle id="LE1LE2_9_0" type="SUMO_DEFAULT_TYPE" route="LE1LE2" depart="9" departLane="best"/>
    <vehicle id="LE1LE4_10_1" type="SUMO_DEFAULT_TYPE" route="LE1LE4" depart="9" departLane="best"/>
    <vehicle id="LE2LE4_11_0" type="SUMO_DEFAULT_TYPE" route="LE2LE4" depart="9" departLane="best"/>
    <vehicle id="LE3LE4_12_0" type="SUMO_DEFAULT_TYPE" route="LE3LE4" depart="9" departLane="best"/>
    <vehicle id="LE3LE1_13_1" type="SUMO_DEFAULT_TYPE" route="LE3LE1" depart="9" departLane="best"/>
    <vehicle id="LE4LE3_14_0" type="SUMO_DEFAULT_TYPE" route="LE4LE3" depart="11" departLane="best"/>
    <vehicle id="LE2LE3_15_0" type="SUMO_DEFAULT_TYPE" route="LE2LE3" depart="12" departLane="best"/>
    <vehicle id="LE3LE1_16_0" type="SUMO_DEFAULT_TYPE" route="LE3LE1" depart="12" departLane="best"/>
    <vehicle id="LE3LE1_17_1" type="SUMO_DEFAULT_TYPE" route="LE3LE1" depart="12" departLane="best"/>
    <vehicle id="LE4LE1_18_0" type="SUMO_DEFAULT_TYPE" route="LE4LE1" depart="12" departLane="best"/>
    <vehicle id="LE2LE1_19_0" type="SUMO_DEFAULT_TYPE" route="LE2LE1" depart="15" departLane="best"/>
    <vehicle id="LE2LE1_20_0" type="SUMO_DEFAULT_TYPE" route="LE2LE1" depart="16" departLane="best"/>
    <vehicle id="LE2LE4_21_0" type="SUMO_DEFAULT_TYPE" route="LE2LE4" depart="20" departLane="best"/>
    <vehicle id="LE3LE4_22_0" type="SUMO_DEFAULT_TYPE" route="LE3LE4" depart="20" departLane="best"/>
    <vehicle id="LE1LE2_23_0" type="SUMO_DEFAULT_TYPE" route="LE1LE2" depart="21" departLane="best"/>
    <vehicle id="LE3LE4_24_0" type="SUMO_DEFAULT_TYPE" route="LE3LE4" depart="24" departLane="best"/>
    <vehicle id="LE3LE1_25_0" type="SUMO_DEFAULT_TYPE" route="LE3LE1" depart="25" departLane="best"/>
    <vehicle id="LE4LE3_26_0" type="SUMO_DEFAULT_TYPE" route="LE4LE3" depart="25" departLane="best"/>
    <vehicle id="LE2LE4_27_0" type="SUMO_DEFAULT_TYPE" route="LE2LE4" depart="26" departLane="best"/>
    <vehicle id="LE1LE4_28_0" type="SUMO_DEFAULT_TYPE" route="LE1LE4" depart="28" departLane="best"/>
    <vehicle id="LE1LE4_29_1" type="SUMO_DEFAULT_TYPE" route="LE1LE4" depart="28" departLane="best"/>
    <vehicle id="LE3LE2_30_0" type="SUMO_DEFAULT_TYPE" route="LE3LE2" depart="30" departLane="best"/>
    <vehicle id="LE2LE1_31_0" type="SUMO_DEFAULT_TYPE" route="LE2LE1" depart="31" departLane="best"/>
    <vehicle id="LE3LE2_32_0" type="SUMO_DEFAULT_TYPE" route="LE3LE2" depart="33" departLane="best"/>
    <vehicle id="LE2LE4_33_0" type="SUMO_DEFAULT_TYPE" route="LE2LE4" depart="34" departLane="best"/>
    <vehicle id="LE1LE3_34_0" type="SUMO_DEFAULT_TYPE" route="LE1LE3" depart="36" departLane="best"/>
    <vehicle id="LE3LE1_35_0" type="SUMO_DEFAULT_TYPE" route="LE3LE1" depart="38" departLane="best"/>
    <vehicle id="LE3LE1_36_0" type="SUMO_DEFAULT_TYPE" route="LE3LE1" depart="39" departLane="best"/>
    <vehicle id="LE4LE3_37_0" type="SUMO_DEFAULT_TYPE" route="LE4LE3" depart="40" departLane="best"/>
    <vehicle id="LE3LE2_38_0" type="SUMO_DEFAULT_TYPE" route="LE3LE2" depart="41" departLane="best"/>
    <vehicle id="LE1LE3_39_0" type="SUMO_DEFAULT_TYPE" route="LE1LE3" depart="42" departLane="best"/>
    <vehicle id="LE1LE3_40_1" type="SUMO_DEFAULT_TYPE" route="LE1LE3" depart="42" departLane="best"/>
    <vehicle id="LE2LE1_41_0" type="SUMO_DEFAULT_TYPE" route="LE2LE1" depart="42" departLane="best"/>
    <vehicle id="LE1LE2_42_0" type="SUMO_DEFAULT_TYPE" route="LE1LE2" depart="43" departLane="best"/>
    <vehicle id="LE3LE2_43_0" type="SUMO_DEFAULT_TYPE" route="LE3LE2" depart="43" departLane="best"/>
    <vehicle id="LE1LE2_44_0" type="SUMO_DEFAULT_TYPE" route="LE1LE2" depart="44" departLane="best"/>
    <vehicle id="LE3LE1_45_0" type="SUMO_DEFAULT_TYPE" route="LE3LE1" depart="44" departLane="best"/>
    <vehicle id="LE3LE2_46_0" type="SUMO_DEFAULT_TYPE" route="LE3LE2" depart="47" departLane="best"/>
    <vehicle id="LE3LE1_47_0" type="SUMO_DEFAULT_TYPE" route="LE3LE1" depart="48" departLane="best"/>
    <vehicle id="LE1LE3_48_0" type="SUMO_DEFAULT_TYPE" route="LE1LE3" depart="50" departLane="best"/>
    <vehicle id="LE2LE3_49_0" type="SUMO_DEFAULT_TYPE" route="LE2LE3" depart="50" departLane="best"/>
    <vehicle id="LE4LE3_50_0" type="SUMO_DEFAULT_TYPE" route="LE4LE3" depart="50" departLane="best"/>
    <vehicle id="LE2LE3_51_0" type="SUMO_DEFAULT_TYPE" route="LE2LE3" depart="51" departLane="best"/>
    <vehicle id="LE4LE1_52_0" type="SUMO_DEFAULT_TYPE" route="LE4LE1" depart="51" departLane="best"/>
    <vehicle id="LE1LE4_53_0" type="SUMO_DEFAULT_TYPE" route="LE1LE4" depart="54" departLane="best"/>
    <vehicle id="LE4LE2_54_0" type="SUMO_DEFAULT_TYPE" route="LE4LE2" depart="54" departLane="best"/>
    <vehicle id="LE1LE4_55_0" type="SUMO_DEFAULT_TYPE" route="LE1LE4" depart="55" departLane="best"/>
    <vehicle id="LE1LE2_56_1" type="SUMO_DEFAULT_TYPE" route="LE1LE2" depart="55" departLane="best"/>
    <vehicle id="LE3LE2_57_0" type="SUMO_DEFAULT_TYPE" route="LE3LE2" depart="55" departLane="best"/>
    <vehicle id="LE3LE1_58_1" type="SUMO_DEFAULT_TYPE" route="LE3LE1" depart="55" departLane="best"/>
    <vehicle id="LE3LE4_59_2" type="SUMO_DEFAULT_TYPE" route="LE3LE4" depart="55" departLane="best"/>
    <vehicle id="LE3LE2_60_3" type="SUMO_DEFAULT_TYPE" route="LE3LE2" depart="55" departLane="best"/>
    <vehicle id="LE1LE4_61_0" type="SUMO_DEFAULT_TYPE" route="LE1LE4" depart="57" departLane="best"/>
    <vehicle id="LE2LE4_62_0" type="SUMO_DEFAULT_TYPE" route="LE2LE4" depart="57" departLane="best"/>
    <vehicle id="LE3LE2_63_0" type="SUMO_DEFAULT_TYPE" route="LE3LE2" depart="57" departLane="best"/>
    <vehicle id="LE3LE4_64_0" type="SUMO_DEFAULT_TYPE" route="LE3LE4" depart="58" departLane="best"/>
    <vehicle id="LE1LE2_65_0" type="SUMO_DEFAULT_TYPE" route="LE1LE2" depart="59" departLane="best"/>
    <vehicle id="LE3LE4_66_0" type="SUMO_DEFAULT_TYPE" route="LE3LE4" depart="60" departLane="best"/>
    <vehicle id="LE4LE1_67_0" type="SUMO_DEFAULT_TYPE" route="LE4LE1" depart="61" departLane="best"/>
    <vehicle id="LE1LE2_68_0" type="SUMO_DEFAULT_TYPE" route="LE1LE2" depart="62" departLane="best"/>
    <vehicle id="LE3LE4_69_0" type="SUMO_DEFAULT_TYPE" route="LE3LE4" depart="62" departLane="best"/>
    <vehicle id="LE2LE1_70_0" type="SUMO_DEFAULT_TYPE" route="LE2LE1" depart="63" departLane="best"/>
    <vehicle id="LE3LE2_71_0" type="SUMO_DEFAULT_TYPE" route="LE3LE2" depart="64" departLane="best"/>
    <vehicle id="LE1LE2_72_0" type="SUMO_DEFAULT_TYPE" route="LE1LE2" depart="69" departLane="best"/>
    <vehicle id="LE4LE1_73_0" type="SUMO_DEFAULT_TYPE" route="LE4LE1" depart="69" departLane="best"/>
    <vehicle id="LE3LE1_74_0" type="SUMO_DEFAULT_TYPE" route="LE3LE1" depart="71" departLane="best"/>
    <vehicle id="LE1LE3_75_0" type="SUMO_DEFAULT_TYPE" route="LE1LE3" depart="72" departLane="best"/>
    <vehicle id="LE2LE3_76_0" type="SUMO_DEFAULT_TYPE" route="LE2LE3" depart="72" departLane="best"/>
    <vehicle id="LE3LE2_77_0" type="SUMO_DEFAULT_TYPE" route="LE3LE2" depart="72" departLane="best"/>
    <vehicle id="LE1LE4_78_0" type="SUMO_DEFAULT_TYPE" route="LE1LE4" depart="73" departLane="best"/>
    <vehicle id="LE4LE2_79_0" type="SUMO_DEFAULT_TYPE" route="LE4LE2" depart="76" departLane="best"/>
    <vehicle id="LE2LE1_80_0" type="SUMO_DEFAULT_TYPE" route="LE2LE1" depart="77" departLane="best"/>
    <vehicle id="LE4LE2_81_0" type="SUMO_DEFAULT_TYPE" route="LE4LE2" depart="78" departLane="best"/>
    <vehicle id="LE2LE3_82_0" type="SUMO_DEFAULT_TYPE" route="LE2LE3" depart="81" departLane="best"/>
    <vehicle id="LE4LE1_83_0" type="SUMO_DEFAULT_TYPE" route="LE4LE1" depart="81" departLane="best"/>
    <vehicle id="LE1LE4_84_0" type="SUMO_DEFAULT_TYPE" route="LE1LE4" depart="82" departLane="best"/>
    <vehicle id="LE4LE2_85_0" type="SUMO_DEFAULT_TYPE" route="LE4LE2" depart="82" departLane="best"/>
    <vehicle id="LE3LE4_86_0" type="SUMO_DEFAULT_TYPE" route="LE3LE4" depart="83" departLane="best"/>
    <vehicle id="LE1LE4_87_0" type="SUMO_DEFAULT_TYPE" route="LE1LE4" depart="84" departLane="best"/>
    <vehicle id="LE2LE4_88_0" type="SUMO_DEFAULT_TYPE" route="LE2LE4" depart="85" departLane="best"/>
    <vehicle id="LE2LE1_89_0" type="SUMO_DEFAULT_TYPE" route="LE2LE1" depart="86" departLane="best"/>
    <vehicle id="LE3LE4_90_0" type="SUMO_DEFAULT_TYPE" route="LE3LE4" depart="86" departLane="best"/>
    <vehicle id="LE3LE4_91_0" type="SUMO_DEFAULT_TYPE" route="LE3LE4" depart="87" departLane="best"/>
    <vehicle id="LE1LE2_92_0" type="SUMO_DEFAULT_TYPE" route="LE1LE2" depart="88" departLane="best"/>
    <vehicle id="LE1LE4_93_1" type="SUMO_DEFAULT_TYPE" route="LE1LE4" depart="88" departLane="best"/>
    <vehicle id="LE3LE4_94_0" type="SUMO_DEFAULT_TYPE" route="LE3LE4" depart="88" departLane="best"/>
    <vehicle id="LE3LE1_95_1" type="SUMO_DEFAULT_TYPE" route="LE3LE1" depart="88" departLane="best"/>
    <vehicle id="LE1LE2_96_0" type="SUMO_DEFAULT_TYPE" route="LE1LE2" depart="89" departLane="best"/>
    <vehicle id="LE2LE3_97_0" type="SUMO_DEFAULT_TYPE" route="LE2LE3" depart="89" departLane="best"/>
    <vehicle id="LE2LE3_98_1" type="SUMO_DEFAULT_TYPE" route="LE2LE3" depart="89" departLane="best"/>
    <vehicle id="LE1LE3_99_0" type="SUMO_DEFAULT_TYPE" route="LE1LE3" depart="91" departLane="best"/>
    <vehicle id="LE1LE4_100_0" type="SUMO_DEFAULT_TYPE" route="LE1LE4" depart="92" departLane="best"/>
    <vehicle id="LE3LE4_101_0" type="SUMO_DEFAULT_TYPE" route="LE3LE4" depart="93" departLane="best"/>
    <vehicle id="LE2LE4_102_0" type="SUMO_DEFAULT_TYPE" route="LE2LE4" depart="95" departLane="best"/>
    <vehicle id="LE2LE1_103_0" type="SUMO_DEFAULT_TYPE" route="LE2LE1" depart="96" departLane="best"/>
    <vehicle id="LE1LE4_104_0" type="SUMO_DEFAULT_TYPE" route="LE1LE4" depart="97" departLane="best"/>
    <vehicle id="LE3LE2_105_0" type="SUMO_DEFAULT_TYPE" route="LE3LE2" depart="98" departLane="best"/>
    <vehicle id="LE4LE1_106_0" type="SUMO_DEFAULT_TYPE" route="LE4LE1" depart="100" departLane="best"/>
    <vehicle id="LE1LE2_107_0" type="SUMO_DEFAULT_TYPE" route="LE1LE2" depart="104" departLane="best"/>
    <vehicle id="LE3LE1_108_0" type="SUMO_DEFAULT_TYPE" route="LE3LE1" depart="104" departLane="best"/>
    <vehicle id="LE3LE2_109_0" type="SUMO_DEFAULT_TYPE" route="LE3LE2" depart="105" departLane="best"/>
    <vehicle id="LE2LE3_110_0" type="SUMO_DEFAULT_TYPE" route="LE2LE3" depart="106" departLane="best"/>
    <vehicle id="LE3LE2_111_0" type="SUMO_DEFAULT_TYPE" route="LE3LE2" depart="106" departLane="best"/>
    <vehicle id="LE3LE1_112_1" type="SUMO_DEFAULT_TYPE" route="LE3LE1" depart="106" departLane="best"/>
    <vehicle id="LE3LE1_113_2" type="SUMO_DEFAULT_TYPE" route="LE3LE1" depart="106" departLane="best"/>
    <vehicle id="LE3LE4_114_0" type="SUMO_DEFAULT_TYPE" route="LE3LE4" depart="107" departLane="best"/>
    <vehicle id="LE3LE4_115_1" type="SUMO_DEFAULT_TYPE" route="LE3LE4" depart="107" departLane="best"/>
    <vehicle id="LE1LE3_116_0" type="SUMO_DEFAULT_TYPE" route="LE1LE3" depart="108" departLane="best"/>
    <vehicle id="LE1LE2_117_1" type="SUMO_DEFAULT_TYPE" route="LE1LE2" depart="108" departLane="best"/>
    <vehicle id="LE3LE4_118_0" type="SUMO_DEFAULT_TYPE" route="LE3LE4" depart="109" departLane="best"/>
    <vehicle id="LE3LE2_119_1" type="SUMO_DEFAULT_TYPE" route="LE3LE2" depart="109" departLane="best"/>
    <vehicle id="LE2LE3_120_0" type="SUMO_DEFAULT_TYPE" route="LE2LE3" depart="110" departLane="best"/>
    <vehicle id="LE3LE4_121_0" type="SUMO_DEFAULT_TYPE" route="LE3LE4" depart="111" departLane="best"/>
    <vehicle id="LE3LE2_122_0" type="SUMO_DEFAULT_TYPE" route="LE3LE2" depart="114" departLane="best"/>
    <vehicle id="LE1LE2_123_0" type="SUMO_DEFAULT_TYPE" route="LE1LE2" depart="117" departLane="best"/>
    <vehicle id="LE3LE2_124_0" type="SUMO_DEFAULT_TYPE" route="LE3LE2" depart="117" departLane="best"/>
    <vehicle id="LE3LE1_125_0" type="SUMO_DEFAULT_TYPE" route="LE3LE1" depart="118" departLane="best"/>
    <vehicle id="LE3LE1_126_1" type="SUMO_DEFAULT_TYPE" route="LE3LE1" depart="118" departLane="best"/>
    <vehicle id="LE1LE4_127_0" type="SUMO_DEFAULT_TYPE" route="LE1LE4" depart="120" departLane="best"/>
    <vehicle id="LE2LE4_128_0" type="SUMO_DEFAULT_TYPE" route="LE2LE4" depart="120" departLane="best"/>
    <vehicle id="LE2LE4_129_0" type="SUMO_DEFAULT_TYPE" route="LE2LE4" depart="121" departLane="best"/>
    <vehicle id="LE1LE3_130_0" type="SUMO_DEFAULT_TYPE" route="LE1LE3" depart="122" departLane="best"/>
    <vehicle id="LE2LE4_131_0" type="SUMO_DEFAULT_TYPE" route="LE2LE4" depart="123" departLane="best"/>
    <vehicle id="LE3LE4_132_0" type="SUMO_DEFAULT_TYPE" route="LE3LE4" depart="123" departLane="best"/>
    <vehicle id="LE3LE2_133_1" type="SUMO_DEFAULT_TYPE" route="LE3LE2" depart="123" departLane="best"/>
    <vehicle id="LE2LE4_134_0" type="SUMO_DEFAULT_TYPE" route="LE2LE4" depart="124" departLane="best"/>
    <vehicle id="LE2LE3_135_0" type="SUMO_DEFAULT_TYPE" route="LE2LE3" depart="125" departLane="best"/>
    <vehicle id="LE2LE3_136_0" type="SUMO_DEFAULT_TYPE" route="LE2LE3" depart="128" departLane="best"/>
    <vehicle id="LE2LE1_137_1" type="SUMO_DEFAULT_TYPE" route="LE2LE1" depart="128" departLane="best"/>
    <vehicle id="LE3LE1_138_0" type="SUMO_DEFAULT_TYPE" route="LE3LE1" depart="128" departLane="best"/>
    <vehicle id="LE3LE4_139_1" type="SUMO_DEFAULT_TYPE" route="LE3LE4" depart="128" departLane="best"/>
    <vehicle id="LE1LE3_140_0" type="SUMO_DEFAULT_TYPE" route="LE1LE3" depart="129" departLane="best"/>
    <vehicle id="LE2LE1_141_0" type="SUMO_DEFAULT_TYPE" route="LE2LE1" depart="129" departLane="best"/>
    <vehicle id="LE3LE1_142_0" type="SUMO_DEFAULT_TYPE" route="LE3LE1" depart="129" departLane="best"/>
    <vehicle id="LE3LE1_143_0" type="SUMO_DEFAULT_TYPE" route="LE3LE1" depart="130" departLane="best"/>
    <vehicle id="LE3LE1_144_0" type="SUMO_DEFAULT_TYPE" route="LE3LE1" depart="132" departLane="best"/>
    <vehicle id="LE4LE3_145_0" type="SUMO_DEFAULT_TYPE" route="LE4LE3" depart="132" departLane="best"/>
    <vehicle id="LE3LE1_146_0" type="SUMO_DEFAULT_TYPE" route="LE3LE1" depart="133" departLane="best"/>
    <vehicle id="LE4LE3_147_0" type="SUMO_DEFAULT_TYPE" route="LE4LE3" depart="136" departLane="best"/>
    <vehicle id="LE3LE2_148_0" type="SUMO_DEFAULT_TYPE" route="LE3LE2" depart="137" departLane="best"/>
    <vehicle id="LE4LE3_149_0" type="SUMO_DEFAULT_TYPE" route="LE4LE3" depart="137" departLane="best"/>
    <vehicle id="LE3LE1_150_0" type="SUMO_DEFAULT_TYPE" route="LE3LE1" depart="138" departLane="best"/>
    <vehicle id="LE3LE2_151_0" type="SUMO_DEFAULT_TYPE" route="LE3LE2" depart="139" departLane="best"/>
    <vehicle id="LE3LE2_152_0" type="SUMO_DEFAULT_TYPE" route="LE3LE2" depart="140" departLane="best"/>
    <vehicle id="LE1LE4_153_0" type="SUMO_DEFAULT_TYPE" route="LE1LE4" depart="141" departLane="best"/>
    <vehicle id="LE1LE3_154_0" type="SUMO_DEFAULT_TYPE" route="LE1LE3" depart="144" departLane="best"/>
    <vehicle id="LE1LE4_155_1" type="SUMO_DEFAULT_TYPE" route="LE1LE4" depart="144" departLane="best"/>
    <vehicle id="LE4LE2_156_0" type="SUMO_DEFAULT_TYPE" route="LE4LE2" depart="145" departLane="best"/>
    <vehicle id="LE1LE4_157_0" type="SUMO_DEFAULT_TYPE" route="LE1LE4" depart="146" departLane="best"/>
    <vehicle id="LE3LE1_158_0" type="SUMO_DEFAULT_TYPE" route="LE3LE1" depart="148" departLane="best"/>
    <vehicle id="LE1LE4_159_0" type="SUMO_DEFAULT_TYPE" route="LE1LE4" depart="150" departLane="best"/>
    <vehicle id="LE1LE4_160_1" type="SUMO_DEFAULT_TYPE" route="LE1LE4" depart="150" departLane="best"/>
    <vehicle id="LE2LE1_161_0" type="SUMO_DEFAULT_TYPE" route="LE2LE1" depart="150" departLane="best"/>
    <vehicle id="LE2LE4_162_1" type="SUMO_DEFAULT_TYPE" route="LE2LE4" depart="150" departLane="best"/>
    <vehicle id="LE3LE4_163_0" type="SUMO_DEFAULT_TYPE" route="LE3LE4" depart="151" departLane="best"/>
    <vehicle id="LE4LE2_164_0" type="SUMO_DEFAULT_TYPE" route="LE4LE2" depart="151" departLane="best"/>
    <vehicle id="LE1LE4_165_0" type="SUMO_DEFAULT_TYPE" route="LE1LE4" depart="154" departLane="best"/>
    <vehicle id="LE1LE3_166_1" type="SUMO_DEFAULT_TYPE" route="LE1LE3" depart="154" departLane="best"/>
    <vehicle id="LE2LE1_167_0" type="SUMO_DEFAULT_TYPE" route="LE2LE1" depart="154" departLane="best"/>
    <vehicle id="LE3LE2_168_0" type="SUMO_DEFAULT_TYPE" route="LE3LE2" depart="156" departLane="best"/>
    <vehicle id="LE2LE3_169_0" type="SUMO_DEFAULT_TYPE" route="LE2LE3" depart="157" departLane="best"/>
    <vehicle id="LE1LE2_170_0" type="SUMO_DEFAULT_TYPE" route="LE1LE2" depart="158" departLane="best"/>
    <vehicle id="LE4LE2_171_0" type="SUMO_DEFAULT_TYPE" route="LE4LE2" depart="158" departLane="best"/>
    <vehicle id="LE4LE1_172_0" type="SUMO_DEFAULT_TYPE" route="LE4LE1" depart="162" departLane="best"/>
    <vehicle id="LE2LE4_173_0" type="SUMO_DEFAULT_TYPE" route="LE2LE4" depart="163" departLane="best"/>
    <vehicle id="LE2LE4_174_1" type="SUMO_DEFAULT_TYPE" route="LE2LE4" depart="163" departLane="best"/>
    <vehicle id="LE2LE3_175_0" type="SUMO_DEFAULT_TYPE" route="LE2LE3" depart="165" departLane="best"/>
    <vehicle id="LE3LE4_176_0" type="SUMO_DEFAULT_TYPE" route="LE3LE4" depart="165" departLane="best"/>
    <vehicle id="LE1LE2_177_0" type="SUMO_DEFAULT_TYPE" route="LE1LE2" depart="171" departLane="best"/>
    <vehicle id="LE3LE4_178_0" type="SUMO_DEFAULT_TYPE" route="LE3LE4" depart="171" departLane="best"/>
    <vehicle id="LE1LE2_179_0" type="SUMO_DEFAULT_TYPE" route="LE1LE2" depart="172" departLane="best"/>
    <vehicle id="LE2LE4_180_0" type="SUMO_DEFAULT_TYPE" route="LE2LE4" depart="172" departLane="best"/>
    <vehicle id="LE3LE2_181_0" type="SUMO_DEFAULT_TYPE" route="LE3LE2" depart="173" departLane="best"/>
    <vehicle id="LE3LE4_182_0" type="SUMO_DEFAULT_TYPE" route="LE3LE4" depart="175" departLane="best"/>
    <vehicle id="LE4LE3_183_0" type="SUMO_DEFAULT_TYPE" route="LE4LE3" depart="175" departLane="best"/>
    <vehicle id="LE1LE4_184_0" type="SUMO_DEFAULT_TYPE" route="LE1LE4" depart="178" departLane="best"/>
    <vehicle id="LE1LE2_185_0" type="SUMO_DEFAULT_TYPE" route="LE1LE2" depart="179" departLane="best"/>
    <vehicle id="LE1LE2_186_0" type="SUMO_DEFAULT_TYPE" route="LE1LE2" depart="180" departLane="best"/>
    <vehicle id="LE4LE2_187_0" type="SUMO_DEFAULT_TYPE" route="LE4LE2" depart="180" departLane="best"/>
    <vehicle id="LE2LE1_188_0" type="SUMO_DEFAULT_TYPE" route="LE2LE1" depart="181" departLane="best"/>
    <vehicle id="LE3LE4_189_0" type="SUMO_DEFAULT_TYPE" route="LE3LE4" depart="181" departLane="best"/>
    <vehicle id="LE3LE4_190_1" type="SUMO_DEFAULT_TYPE" route="LE3LE4" depart="181" departLane="best"/>
    <vehicle id="LE3LE1_191_2" type="SUMO_DEFAULT_TYPE" route="LE3LE1" depart="181" departLane="best"/>
    <vehicle id="LE3LE4_192_0" type="SUMO_DEFAULT_TYPE" route="LE3LE4" depart="182" departLane="best"/>
    <vehicle id="LE4LE2_193_0" type="SUMO_DEFAULT_TYPE" route="LE4LE2" depart="183" departLane="best"/>
    <vehicle id="LE4LE2_194_0" type="SUMO_DEFAULT_TYPE" route="LE4LE2" depart="184" departLane="best"/>
    <vehicle id="LE3LE1_195_0" type="SUMO_DEFAULT_TYPE" route="LE3LE1" depart="185" departLane="best"/>
    <vehicle id="LE2LE1_196_0" type="SUMO_DEFAULT_TYPE" route="LE2LE1" depart="186" departLane="best"/>
    <vehicle id="LE3LE2_197_0" type="SUMO_DEFAULT_TYPE" route="LE3LE2" depart="186" departLane="best"/>
    <vehicle id="LE3LE2_198_0" type="SUMO_DEFAULT_TYPE" route="LE3LE2" depart="188" departLane="best"/>
    <vehicle id="LE1LE2_199_0" type="SUMO_DEFAULT_TYPE" route="LE1LE2" depart="189" departLane="best"/>
    <vehicle id="LE1LE2_200_1" type="SUMO_DEFAULT_TYPE" route="LE1LE2" depart="189" departLane="best"/>
    <vehicle id="LE1LE2_201_2" type="SUMO_DEFAULT_TYPE" route="LE1LE2" depart="189" departLane="best"/>
    <vehicle id="LE1LE4_202_0" type="SUMO_DEFAULT_TYPE" route="LE1LE4" depart="191" departLane="best"/>
    <vehicle id="LE4LE1_203_0" type="SUMO_DEFAULT_TYPE" route="LE4LE1" depart="191" departLane="best"/>
    <vehicle id="LE1LE2_204_0" type="SUMO_DEFAULT_TYPE" route="LE1LE2" depart="192" departLane="best"/>
    <vehicle id="LE1LE4_205_1" type="SUMO_DEFAULT_TYPE" route="LE1LE4" depart="192" departLane="best"/>
    <vehicle id="LE1LE3_206_2" type="SUMO_DEFAULT_TYPE" route="LE1LE3" depart="192" departLane="best"/>
    <vehicle id="LE3LE1_207_0" type="SUMO_DEFAULT_TYPE" route="LE3LE1" depart="192" departLane="best"/>
    <vehicle id="LE1LE4_208_0" type="SUMO_DEFAULT_TYPE" route="LE1LE4" depart="194" departLane="best"/>
    <vehicle id="LE3LE1_209_0" type="SUMO_DEFAULT_TYPE" route="LE3LE1" depart="195" departLane="best"/>
    <vehicle id="LE1LE2_210_0" type="SUMO_DEFAULT_TYPE" route="LE1LE2" depart="197" departLane="best"/>
    <vehicle id="LE3LE4_211_0" type="SUMO_DEFAULT_TYPE" route="LE3LE4" depart="197" departLane="best"/>
    <vehicle id="LE3LE2_212_0" type="SUMO_DEFAULT_TYPE" route="LE3LE2" depart="198" departLane="best"/>
    <vehicle id="LE2LE4_213_0" type="SUMO_DEFAULT_TYPE" route="LE2LE4" depart="199" departLane="best"/>
    <vehicle id="LE1LE2_214_0" type="SUMO_DEFAULT_TYPE" route="LE1LE2" depart="201" departLane="best"/>
    <vehicle id="LE3LE2_215_0" type="SUMO_DEFAULT_TYPE" route="LE3LE2" depart="201" departLane="best"/>
    <vehicle id="LE3LE4_216_1" type="SUMO_DEFAULT_TYPE" route="LE3LE4" depart="201" departLane="best"/>
    <vehicle id="LE4LE3_217_0" type="SUMO_DEFAULT_TYPE" route="LE4LE3" depart="202" departLane="best"/>
    <vehicle id="LE1LE3_218_0" type="SUMO_DEFAULT_TYPE" route="LE1LE3" depart="203" departLane="best"/>
    <vehicle id="LE2LE1_219_0" type="SUMO_DEFAULT_TYPE" route="LE2LE1" depart="203" departLane="best"/>
    <vehicle id="LE3LE4_220_0" type="SUMO_DEFAULT_TYPE" route="LE3LE4" depart="203" departLane="best"/>
    <vehicle id="LE4LE3_221_0" type="SUMO_DEFAULT_TYPE" route="LE4LE3" depart="203" departLane="best"/>
    <vehicle id="LE4LE3_222_1" type="SUMO_DEFAULT_TYPE" route="LE4LE3" depart="203" departLane="best"/>
    <vehicle id="LE2LE1_223_0" type="SUMO_DEFAULT_TYPE" route="LE2LE1" depart="204" departLane="best"/>
    <vehicle id="LE3LE4_224_0" type="SUMO_DEFAULT_TYPE" route="LE3LE4" depart="204" departLane="best"/>
    <vehicle id="LE3LE2_225_0" type="SUMO_DEFAULT_TYPE" route="LE3LE2" depart="205" departLane="best"/>
    <vehicle id="LE2LE3_226_0" type="SUMO_DEFAULT_TYPE" route="LE2LE3" depart="207" departLane="best"/>
    <vehicle id="LE4LE3_227_0" type="SUMO_DEFAULT_TYPE" route="LE4LE3" depart="207" departLane="best"/>
    <vehicle id="LE1LE4_228_0" type="SUMO_DEFAULT_TYPE" route="LE1LE4" depart="208" departLane="best"/>
    <vehicle id="LE3LE2_229_0" type="SUMO_DEFAULT_TYPE" route="LE3LE2" depart="208" departLane="best"/>
    <vehicle id="LE1LE3_230_0" type="SUMO_DEFAULT_TYPE" route="LE1LE3" depart="209" departLane="best"/>
    <vehicle id="LE1LE4_231_1" type="SUMO_DEFAULT_TYPE" route="LE1LE4" depart="209" departLane="best"/>
    <vehicle id="LE1LE3_232_0" type="SUMO_DEFAULT_TYPE" route="LE1LE3" depart="211" departLane="best"/>
    <vehicle id="LE2LE1_233_0" type="SUMO_DEFAULT_TYPE" route="LE2LE1" depart="211" departLane="best"/>
    <vehicle id="LE3LE1_234_0" type="SUMO_DEFAULT_TYPE" route="LE3LE1" depart="212" departLane="best"/>
    <vehicle id="LE1LE2_235_0" type="SUMO_DEFAULT_TYPE" route="LE1LE2" depart="213" departLane="best"/>
    <vehicle id="LE3LE1_236_0" type="SUMO_DEFAULT_TYPE" route="LE3LE1" depart="214" departLane="best"/>
    <vehicle id="LE3LE2_237_1" type="SUMO_DEFAULT_TYPE" route="LE3LE2" depart="214" departLane="best"/>
    <vehicle id="LE4LE1_238_0" type="SUMO_DEFAULT_TYPE" route="LE4LE1" depart="214" departLane="best"/>
    <vehicle id="LE2LE4_239_0" type="SUMO_DEFAULT_TYPE" route="LE2LE4" depart="215" departLane="best"/>
    <vehicle id="LE4LE3_240_0" type="SUMO_DEFAULT_TYPE" route="LE4LE3" depart="215" departLane="best"/>
    <vehicle id="LE3LE1_241_0" type="SUMO_DEFAULT_TYPE" route="LE3LE1" depart="216" departLane="best"/>
    <vehicle id="LE2LE4_242_0" type="SUMO_DEFAULT_TYPE" route="LE2LE4" depart="217" departLane="best"/>
    <vehicle id="LE3LE1_243_0" type="SUMO_DEFAULT_TYPE" route="LE3LE1" depart="218" departLane="best"/>
    <vehicle id="LE4LE1_244_0" type="SUMO_DEFAULT_TYPE" route="LE4LE1" depart="218" departLane="best"/>
    <vehicle id="LE4LE1_245_0" type="SUMO_DEFAULT_TYPE" route="LE4LE1" depart="219" departLane="best"/>
    <vehicle id="LE3LE4_246_0" type="SUMO_DEFAULT_TYPE" route="LE3LE4" depart="220" departLane="best"/>
    <vehicle id="LE2LE4_247_0" type="SUMO_DEFAULT_TYPE" route="LE2LE4" depart="222" departLane="best"/>
    <vehicle id="LE3LE1_248_0" type="SUMO_DEFAULT_TYPE" route="LE3LE1" depart="222" departLane="best"/>
    <vehicle id="LE2LE1_249_0" type="SUMO_DEFAULT_TYPE" route="LE2LE1" depart="224" departLane="best"/>
    <vehicle id="LE3LE1_250_0" type="SUMO_DEFAULT_TYPE" route="LE3LE1" depart="224" departLane="best"/>
    <vehicle id="LE1LE2_251_0" type="SUMO_DEFAULT_TYPE" route="LE1LE2" depart="225" departLane="best"/>
    <vehicle id="LE2LE3_252_0" type="SUMO_DEFAULT_TYPE" route="LE2LE3" depart="227" departLane="best"/>
    <vehicle id="LE4LE1_253_0" type="SUMO_DEFAULT_TYPE" route="LE4LE1" depart="227" departLane="best"/>
    <vehicle id="LE1LE4_254_0" type="SUMO_DEFAULT_TYPE" route="LE1LE4" depart="228" departLane="best"/>
    <vehicle id="LE4LE1_255_0" type="SUMO_DEFAULT_TYPE" route="LE4LE1" depart="228" departLane="best"/>
    <vehicle id="LE2LE3_256_0" type="SUMO_DEFAULT_TYPE" route="LE2LE3" depart="229" departLane="best"/>
    <vehicle id="LE3LE4_257_0" type="SUMO_DEFAULT_TYPE" route="LE3LE4" depart="229" departLane="best"/>
    <vehicle id="LE2LE3_258_0" type="SUMO_DEFAULT_TYPE" route="LE2LE3" depart="231" departLane="best"/>
    <vehicle id="LE3LE1_259_0" type="SUMO_DEFAULT_TYPE" route="LE3LE1" depart="231" departLane="best"/>
    <vehicle id="LE2LE4_260_0" type="SUMO_DEFAULT_TYPE" route="LE2LE4" depart="233" departLane="best"/>
    <vehicle id="LE3LE1_261_0" type="SUMO_DEFAULT_TYPE" route="LE3LE1" depart="233" departLane="best"/>
    <vehicle id="LE2LE4_262_0" type="SUMO_DEFAULT_TYPE" route="LE2LE4" depart="235" departLane="best"/>
    <vehicle id="LE3LE4_263_0" type="SUMO_DEFAULT_TYPE" route="LE3LE4" depart="235" departLane="best"/>
    <vehicle id="LE1LE4_264_0" type="SUMO_DEFAULT_TYPE" route="LE1LE4" depart="236" departLane="best"/>
    <vehicle id="LE3LE2_265_0" type="SUMO_DEFAULT_TYPE" route="LE3LE2" depart="236" departLane="best"/>
    <vehicle id="LE1LE2_266_0" type="SUMO_DEFAULT_TYPE" route="LE1LE2" depart="238" departLane="best"/>
    <vehicle id="LE4LE2_267_0" type="SUMO_DEFAULT_TYPE" route="LE4LE2" depart="239" departLane="best"/>
    <vehicle id="LE1LE3_268_0" type="SUMO_DEFAULT_TYPE" route="LE1LE3" depart="242" departLane="best"/>
    <vehicle id="LE1LE2_269_1" type="SUMO_DEFAULT_TYPE" route="LE1LE2" depart="242" departLane="best"/>
    <vehicle id="LE3LE1_270_0" type="SUMO_DEFAULT_TYPE" route="LE3LE1" depart="242" departLane="best"/>
    <vehicle id="LE3LE1_271_1" type="SUMO_DEFAULT_TYPE" route="LE3LE1" depart="242" departLane="best"/>
    <vehicle id="LE3LE4_272_0" type="SUMO_DEFAULT_TYPE" route="LE3LE4" depart="245" departLane="best"/>
    <vehicle id="LE3LE2_273_1" type="SUMO_DEFAULT_TYPE" route="LE3LE2" depart="245" departLane="best"/>
    <vehicle id="LE4LE2_274_0" type="SUMO_DEFAULT_TYPE" route="LE4LE2" depart="245" departLane="best"/>
    <vehicle id="LE3LE2_275_0" type="SUMO_DEFAULT_TYPE" route="LE3LE2" depart="246" departLane="best"/>
    <vehicle id="LE1LE3_276_0" type="SUMO_DEFAULT_TYPE" route="LE1LE3" depart="251" departLane="best"/>
    <vehicle id="LE2LE3_277_0" type="SUMO_DEFAULT_TYPE" route="LE2LE3" depart="252" departLane="best"/>
    <vehicle id="LE2LE4_278_0" type="SUMO_DEFAULT_TYPE" route="LE2LE4" depart="253" departLane="best"/>
    <vehicle id="LE2LE1_279_0" type="SUMO_DEFAULT_TYPE" route="LE2LE1" depart="255" departLane="best"/>