<configuration>
    <input>
        <net-file value="Intersection.net.xml"/>
        <route-files value="Intersection.rou.xml"/>
    </input>
    
    <time>
        <begin value="0"/>
        <end value="3600"/>
	<step-length value="1.0"/>
    </time>
    
    <processing>
        <time-to-teleport value="-1"/>
    </processing>
    
    <report>
        <xml-validation value="never"/>
        <duration-log.disable value="true"/>
        <no-step-log value="true"/>
    </report>
</configuration>