<routes xmlns:xsi="http://www.w3.org/2001/XMLSchema-instance" xsi:noNamespaceSchemaLocation="http://sumo.dlr.de/xsd/routes_file.xsd">
            <vType id="SUMO_DEFAULT_TYPE" accel="0.8" decel="4.5" sigma="0" length="5" minGap="2" maxSpeed="70"/>
            <route id= "LE1LE2" edges="LE1LJ1 LJ1LE2"/>
            <route id= "LE1LE3" edges="LE1LJ1 LJ1LE3"/>
            <route id= "LE1LE4" edges="LE1LJ1 LJ1LE4"/>
            <route id= "LE2LE1" edges="LE2LJ1 LJ1LE1"/>
            <route id= "LE2LE3" edges="LE2LJ1 LJ1LE3"/>
            <route id= "LE2LE4" edges="LE2LJ1 LJ1LE4"/>
            <route id= "LE3LE1" edges="LE3LJ1 LJ1LE1"/>
            <route id= "LE3LE2" edges="LE3LJ1 LJ1LE2"/>
            <route id= "LE3LE4" edges="LE3LJ1 LJ1LE4"/>
            <route id= "LE4LE1" edges="LE4LJ1 LJ1LE1"/>
            <route id= "LE4LE2" edges="LE4LJ1 LJ1LE2"/>
            <route id= "LE4LE3" edges="LE4LJ1 LJ1LE3"/>
            
    <vehicle id="LE1LE3_0" type="SUMO_DEFAULT_TYPE" route="LE1LE3" depart="0" />
    <vehicle id="LE4LE1_1" type="SUMO_DEFAULT_TYPE" route="LE4LE1" depart="0" />
    <vehicle id="LE1LE2_2" type="SUMO_DEFAULT_TYPE" route="LE1LE2" depart="1" />
    <vehicle id="LE3LE2_3" type="SUMO_DEFAULT_TYPE" route="LE3LE2" depart="1" />
    <vehicle id="LE3LE2_4" type="SUMO_DEFAULT_TYPE" route="LE3LE2" depart="5" />
    <vehicle id="LE4LE2_5" type="SUMO_DEFAULT_TYPE" route="LE4LE2" depart="7" />
    <vehicle id="LE2LE3_6" type="SUMO_DEFAULT_TYPE" route="LE2LE3" depart="8" />
    <vehicle id="LE2LE3_7" type="SUMO_DEFAULT_TYPE" route="LE2LE3" depart="10" />
    <vehicle id="LE3LE1_8" type="SUMO_DEFAULT_TYPE" route="LE3LE1" depart="10" />
    <vehicle id="LE4LE3_9" type="SUMO_DEFAULT_TYPE" route="LE4LE3" depart="10" />
    <vehicle id="LE4LE1_10" type="SUMO_DEFAULT_TYPE" route="LE4LE1" depart="13" />
    <vehicle id="LE3LE4_11" type="SUMO_DEFAULT_TYPE" route="LE3LE4" depart="18" />
    <vehicle id="LE2LE4_12" type="SUMO_DEFAULT_TYPE" route="LE2LE4" depart="22" />
    <vehicle id="LE4LE3_13" type="SUMO_DEFAULT_TYPE" route="LE4LE3" depart="23" />
    <vehicle id="LE1LE4_14" type="SUMO_DEFAULT_TYPE" route="LE1LE4" depart="24" />
    <vehicle id="LE4LE1_15" type="SUMO_DEFAULT_TYPE" route="LE4LE1" depart="24" />
    <vehicle id="LE4LE2_16" type="SUMO_DEFAULT_TYPE" route="LE4LE2" depart="24" />
    <vehicle id="LE1LE2_17" type="SUMO_DEFAULT_TYPE" route="LE1LE2" depart="27" />
    <vehicle id="LE3LE1_18" type="SUMO_DEFAULT_TYPE" route="LE3LE1" depart="28" />
    <vehicle id="LE3LE4_19" type="SUMO_DEFAULT_TYPE" route="LE3LE4" depart="30" />
    <vehicle id="LE4LE2_20" type="SUMO_DEFAULT_TYPE" route="LE4LE2" depart="32" />
    <vehicle id="LE4LE2_21" type="SUMO_DEFAULT_TYPE" route="LE4LE2" depart="33" />
    <vehicle id="LE3LE2_22" type="SUMO_DEFAULT_TYPE" route="LE3LE2" depart="34" />
    <vehicle id="LE4LE3_23" type="SUMO_DEFAULT_TYPE" route="LE4LE3" depart="34" />
    <vehicle id="LE3LE2_24" type="SUMO_DEFAULT_TYPE" route="LE3LE2" depart="35" />
    <vehicle id="LE1LE3_25" type="SUMO_DEFAULT_TYPE" route="LE1LE3" depart="40" />
    <vehicle id="LE1LE3_26" type="SUMO_DEFAULT_TYPE" route="LE1LE3" depart="41" />
    <vehicle id="LE4LE1_27" type="SUMO_DEFAULT_TYPE" route="LE4LE1" depart="41" />
    <vehicle id="LE1LE2_28" type="SUMO_DEFAULT_TYPE" route="LE1LE2" depart="42" />
    <vehicle id="LE1LE4_29" type="SUMO_DEFAULT_TYPE" route="LE1LE4" depart="43" />
    <vehicle id="LE1LE2_30" type="SUMO_DEFAULT_TYPE" route="LE1LE2" depart="44" />
    <vehicle id="LE2LE1_31" type="SUMO_DEFAULT_TYPE" route="LE2LE1" depart="45" />
    <vehicle id="LE4LE1_32" type="SUMO_DEFAULT_TYPE" route="LE4LE1" depart="45" />
    <vehicle id="LE1LE3_33" type="SUMO_DEFAULT_TYPE" route="LE1LE3" depart="49" />
    <vehicle id="LE4LE2_34" type="SUMO_DEFAULT_TYPE" route="LE4LE2" depart="49" />
    <vehicle id="LE1LE3_35" type="SUMO_DEFAULT_TYPE" route="LE1LE3" depart="53" />
    <vehicle id="LE4LE2_36" type="SUMO_DEFAULT_TYPE" route="LE4LE2" depart="54" />
    <vehicle id="LE4LE3_37" type="SUMO_DEFAULT_TYPE" route="LE4LE3" depart="56" />
    <vehicle id="LE1LE2_38" type="SUMO_DEFAULT_TYPE" route="LE1LE2" depart="57" />
    <vehicle id="LE3LE4_39" type="SUMO_DEFAULT_TYPE" route="LE3LE4" depart="59" />
    <vehicle id="LE3LE4_40" type="SUMO_DEFAULT_TYPE" route="LE3LE4" depart="60" />
    <vehicle id="LE1LE3_41" type="SUMO_DEFAULT_TYPE" route="LE1LE3" depart="68" />
    <vehicle id="LE4LE2_42" type="SUMO_DEFAULT_TYPE" route="LE4LE2" depart="68" />
    <vehicle id="LE4LE3_43" type="SUMO_DEFAULT_TYPE" route="LE4LE3" depart="70" />
    <vehicle id="LE1LE2_44" type="SUMO_DEFAULT_TYPE" route="LE1LE2" depart="72" />
    <vehicle id="LE4LE1_45" type="SUMO_DEFAULT_TYPE" route="LE4LE1" depart="72" />
    <vehicle id="LE3LE1_46" type="SUMO_DEFAULT_TYPE" route="LE3LE1" depart="73" />
    <vehicle id="LE3LE4_47" type="SUMO_DEFAULT_TYPE" route="LE3LE4" depart="75" />
    <vehicle id="LE3LE4_48" type="SUMO_DEFAULT_TYPE" route="LE3LE4" depart="79" />
    <vehicle id="LE3LE1_49" type="SUMO_DEFAULT_TYPE" route="LE3LE1" depart="80" />
    <vehicle id="LE4LE3_50" type="SUMO_DEFAULT_TYPE" route="LE4LE3" depart="80" />
    <vehicle id="LE4LE3_51" type="SUMO_DEFAULT_TYPE" route="LE4LE3" depart="82" />
    <vehicle id="LE2LE4_52" type="SUMO_DEFAULT_TYPE" route="LE2LE4" depart="84" />
    <vehicle id="LE4LE2_53" type="SUMO_DEFAULT_TYPE" route="LE4LE2" depart="84" />
    <vehicle id="LE3LE1_54" type="SUMO_DEFAULT_TYPE" route="LE3LE1" depart="85" />
    <vehicle id="LE1LE3_55" type="SUMO_DEFAULT_TYPE" route="LE1LE3" depart="86" />
    <vehicle id="LE1LE4_56" type="SUMO_DEFAULT_TYPE" route="LE1LE4" depart="86" />
    <vehicle id="LE3LE2_57" type="SUMO_DEFAULT_TYPE" route="LE3LE2" depart="86" />
    <vehicle id="LE4LE3_58" type="SUMO_DEFAULT_TYPE" route="LE4LE3" depart="87" />
    <vehicle id="LE3LE4_59" type="SUMO_DEFAULT_TYPE" route="LE3LE4" depart="88" />
    <vehicle id="LE4LE3_60" type="SUMO_DEFAULT_TYPE" route="LE4LE3" depart="90" />
    <vehicle id="LE4LE1_61" type="SUMO_DEFAULT_TYPE" route="LE4LE1" depart="93" />
    <vehicle id="LE2LE4_62" type="SUMO_DEFAULT_TYPE" route="LE2LE4" depart="94" />
    <vehicle id="LE4LE3_63" type="SUMO_DEFAULT_TYPE" route="LE4LE3" depart="94" />
    <vehicle id="LE4LE1_64" type="SUMO_DEFAULT_TYPE" route="LE4LE1" depart="95" />
    <vehicle id="LE1LE3_65" type="SUMO_DEFAULT_TYPE" route="LE1LE3" depart="97" />
    <vehicle id="LE2LE3_66" type="SUMO_DEFAULT_TYPE" route="LE2LE3" depart="97" />
    <vehicle id="LE4LE2_67" type="SUMO_DEFAULT_TYPE" route="LE4LE2" depart="97" />
    <vehicle id="LE3LE4_68" type="SUMO_DEFAULT_TYPE" route="LE3LE4" depart="98" />
    <vehicle id="LE4LE1_69" type="SUMO_DEFAULT_TYPE" route="LE4LE1" depart="98" />
    <vehicle id="LE2LE4_70" type="SUMO_DEFAULT_TYPE" route="LE2LE4" depart="99" />
    <vehicle id="LE4LE3_71" type="SUMO_DEFAULT_TYPE" route="LE4LE3" depart="99" />
    <vehicle id="LE3LE4_72" type="SUMO_DEFAULT_TYPE" route="LE3LE4" depart="103" />
    <vehicle id="LE4LE2_73" type="SUMO_DEFAULT_TYPE" route="LE4LE2" depart="103" />
    <vehicle id="LE3LE4_74" type="SUMO_DEFAULT_TYPE" route="LE3LE4" depart="106" />
    <vehicle id="LE4LE1_75" type="SUMO_DEFAULT_TYPE" route="LE4LE1" depart="106" />
    <vehicle id="LE1LE4_76" type="SUMO_DEFAULT_TYPE" route="LE1LE4" depart="110" />
    <vehicle id="LE2LE4_77" type="SUMO_DEFAULT_TYPE" route="LE2LE4" depart="114" />
    <vehicle id="LE3LE1_78" type="SUMO_DEFAULT_TYPE" route="LE3LE1" depart="114" />
    <vehicle id="LE4LE3_79" type="SUMO_DEFAULT_TYPE" route="LE4LE3" depart="114" />
    <vehicle id="LE4LE3_80" type="SUMO_DEFAULT_TYPE" route="LE4LE3" depart="115" />
    <vehicle id="LE4LE1_81" type="SUMO_DEFAULT_TYPE" route="LE4LE1" depart="116" />
    <vehicle id="LE2LE3_82" type="SUMO_DEFAULT_TYPE" route="LE2LE3" depart="117" />
    <vehicle id="LE1LE3_83" type="SUMO_DEFAULT_TYPE" route="LE1LE3" depart="119" />
    <vehicle id="LE4LE1_84" type="SUMO_DEFAULT_TYPE" route="LE4LE1" depart="119" />
    <vehicle id="LE3LE1_85" type="SUMO_DEFAULT_TYPE" route="LE3LE1" depart="120" />
    <vehicle id="LE4LE2_86" type="SUMO_DEFAULT_TYPE" route="LE4LE2" depart="120" />
    <vehicle id="LE1LE2_87" type="SUMO_DEFAULT_TYPE" route="LE1LE2" depart="121" />
    <vehicle id="LE1LE3_88" type="SUMO_DEFAULT_TYPE" route="LE1LE3" depart="124" />
    <vehicle id="LE2LE4_89" type="SUMO_DEFAULT_TYPE" route="LE2LE4" depart="125" />
    <vehicle id="LE3LE2_90" type="SUMO_DEFAULT_TYPE" route="LE3LE2" depart="128" />
    <vehicle id="LE3LE4_91" type="SUMO_DEFAULT_TYPE" route="LE3LE4" depart="129" />
    <vehicle id="LE4LE1_92" type="SUMO_DEFAULT_TYPE" route="LE4LE1" depart="130" />
    <vehicle id="LE4LE2_93" type="SUMO_DEFAULT_TYPE" route="LE4LE2" depart="131" />
    <vehicle id="LE1LE2_94" type="SUMO_DEFAULT_TYPE" route="LE1LE2" depart="134" />
    <vehicle id="LE1LE3_95" type="SUMO_DEFAULT_TYPE" route="LE1LE3" depart="134" />
    <vehicle id="LE4LE2_96" type="SUMO_DEFAULT_TYPE" route="LE4LE2" depart="136" />
    <vehicle id="LE1LE3_97" type="SUMO_DEFAULT_TYPE" route="LE1LE3" depart="138" />
    <vehicle id="LE3LE2_98" type="SUMO_DEFAULT_TYPE" route="LE3LE2" depart="138" />
    <vehicle id="LE4LE3_99" type="SUMO_DEFAULT_TYPE" route="LE4LE3" depart="139" />
    <vehicle id="LE2LE4_100" type="SUMO_DEFAULT_TYPE" route="LE2LE4" depart="143" />
    <vehicle id="LE3LE2_101" type="SUMO_DEFAULT_TYPE" route="LE3LE2" depart="144" />
    <vehicle id="LE4LE2_102" type="SUMO_DEFAULT_TYPE" route="LE4LE2" depart="144" />
    <vehicle id="LE3LE2_103" type="SUMO_DEFAULT_TYPE" route="LE3LE2" depart="145" />
    <vehicle id="LE3LE2_104" type="SUMO_DEFAULT_TYPE" route="LE3LE2" depart="150" />
    <vehicle id="LE1LE2_105" type="SUMO_DEFAULT_TYPE" route="LE1LE2" depart="153" />
    <vehicle id="LE1LE4_106" type="SUMO_DEFAULT_TYPE" route="LE1LE4" depart="156" />
    <vehicle id="LE4LE2_107" type="SUMO_DEFAULT_TYPE" route="LE4LE2" depart="158" />
    <vehicle id="LE4LE2_108" type="SUMO_DEFAULT_TYPE" route="LE4LE2" depart="159" />
    <vehicle id="LE1LE2_109" type="SUMO_DEFAULT_TYPE" route="LE1LE2" depart="161" />
    <vehicle id="LE3LE2_110" type="SUMO_DEFAULT_TYPE" route="LE3LE2" depart="161" />
    <vehicle id="LE2LE4_111" type="SUMO_DEFAULT_TYPE" route="LE2LE4" depart="163" />
    <vehicle id="LE3LE1_112" type="SUMO_DEFAULT_TYPE" route="LE3LE1" depart="163" />
    <vehicle id="LE4LE2_113" type="SUMO_DEFAULT_TYPE" route="LE4LE2" depart="164" />
    <vehicle id="LE1LE3_114" type="SUMO_DEFAULT_TYPE" route="LE1LE3" depart="165" />
    <vehicle id="LE4LE2_115" type="SUMO_DEFAULT_TYPE" route="LE4LE2" depart="165" />
    <vehicle id="LE4LE2_116" type="SUMO_DEFAULT_TYPE" route="LE4LE2" depart="170" />
    <vehicle id="LE2LE1_117" type="SUMO_DEFAULT_TYPE" route="LE2LE1" depart="175" />
    <vehicle id="LE1LE2_118" type="SUMO_DEFAULT_TYPE" route="LE1LE2" depart="176" />
    <vehicle id="LE3LE4_119" type="SUMO_DEFAULT_TYPE" route="LE3LE4" depart="176" />
    <vehicle id="LE4LE2_120" type="SUMO_DEFAULT_TYPE" route="LE4LE2" depart="176" />
    <vehicle id="LE1LE4_121" type="SUMO_DEFAULT_TYPE" route="LE1LE4" depart="177" />
    <vehicle id="LE2LE4_122" type="SUMO_DEFAULT_TYPE" route="LE2LE4" depart="179" />
    <vehicle id="LE1LE4_123" type="SUMO_DEFAULT_TYPE" route="LE1LE4" depart="180" />
    <vehicle id="LE3LE2_124" type="SUMO_DEFAULT_TYPE" route="LE3LE2" depart="180" />
    <vehicle id="LE1LE2_125" type="SUMO_DEFAULT_TYPE" route="LE1LE2" depart="181" />
    <vehicle id="LE4LE1_126" type="SUMO_DEFAULT_TYPE" route="LE4LE1" depart="182" />
    <vehicle id="LE2LE4_127" type="SUMO_DEFAULT_TYPE" route="LE2LE4" depart="183" />
    <vehicle id="LE1LE3_128" type="SUMO_DEFAULT_TYPE" route="LE1LE3" depart="185" />
    <vehicle id="LE4LE2_129" type="SUMO_DEFAULT_TYPE" route="LE4LE2" depart="185" />
    <vehicle id="LE3LE2_130" type="SUMO_DEFAULT_TYPE" route="LE3LE2" depart="193" />
    <vehicle id="LE1LE4_131" type="SUMO_DEFAULT_TYPE" route="LE1LE4" depart="194" />
    <vehicle id="LE1LE4_132" type="SUMO_DEFAULT_TYPE" route="LE1LE4" depart="195" />
    <vehicle id="LE4LE3_133" type="SUMO_DEFAULT_TYPE" route="LE4LE3" depart="197" />
    <vehicle id="LE3LE4_134" type="SUMO_DEFAULT_TYPE" route="LE3LE4" depart="198" />
    <vehicle id="LE1LE4_135" type="SUMO_DEFAULT_TYPE" route="LE1LE4" depart="202" />
    <vehicle id="LE1LE3_136" type="SUMO_DEFAULT_TYPE" route="LE1LE3" depart="203" />
    <vehicle id="LE3LE1_137" type="SUMO_DEFAULT_TYPE" route="LE3LE1" depart="206" />
    <vehicle id="LE3LE4_138" type="SUMO_DEFAULT_TYPE" route="LE3LE4" depart="209" />
    <vehicle id="LE4LE3_139" type="SUMO_DEFAULT_TYPE" route="LE4LE3" depart="211" />
    <vehicle id="LE3LE2_140" type="SUMO_DEFAULT_TYPE" route="LE3LE2" depart="213" />
    <vehicle id="LE1LE2_141" type="SUMO_DEFAULT_TYPE" route="LE1LE2" depart="214" />
    <vehicle id="LE3LE2_142" type="SUMO_DEFAULT_TYPE" route="LE3LE2" depart="215" />
    <vehicle id="LE4LE1_143" type="SUMO_DEFAULT_TYPE" route="LE4LE1" depart="219" />
    <vehicle id="LE4LE2_144" type="SUMO_DEFAULT_TYPE" route="LE4LE2" depart="219" />
    <vehicle id="LE1LE2_145" type="SUMO_DEFAULT_TYPE" route="LE1LE2" depart="220" />
    <vehicle id="LE4LE1_146" type="SUMO_DEFAULT_TYPE" route="LE4LE1" depart="221" />
    <vehicle id="LE4LE3_147" type="SUMO_DEFAULT_TYPE" route="LE4LE3" depart="223" />
    <vehicle id="LE4LE1_148" type="SUMO_DEFAULT_TYPE" route="LE4LE1" depart="226" />
    <vehicle id="LE4LE3_149" type="SUMO_DEFAULT_TYPE" route="LE4LE3" depart="227" />
    <vehicle id="LE1LE2_150" type="SUMO_DEFAULT_TYPE" route="LE1LE2" depart="229" />
    <vehicle id="LE3LE2_151" type="SUMO_DEFAULT_TYPE" route="LE3LE2" depart="229" />
    <vehicle id="LE4LE3_152" type="SUMO_DEFAULT_TYPE" route="LE4LE3" depart="233" />
    <vehicle id="LE4LE1_153" type="SUMO_DEFAULT_TYPE" route="LE4LE1" depart="234" />
    <vehicle id="LE2LE4_154" type="SUMO_DEFAULT_TYPE" route="LE2LE4" depart="235" />
    <vehicle id="LE2LE3_155" type="SUMO_DEFAULT_TYPE" route="LE2LE3" depart="236" />
    <vehicle id="LE1LE2_156" type="SUMO_DEFAULT_TYPE" route="LE1LE2" depart="237" />
    <vehicle id="LE3LE1_157" type="SUMO_DEFAULT_TYPE" route="LE3LE1" depart="237" />
    <vehicle id="LE1LE3_158" type="SUMO_DEFAULT_TYPE" route="LE1LE3" depart="238" />
    <vehicle id="LE3LE2_159" type="SUMO_DEFAULT_TYPE" route="LE3LE2" depart="238" />
    <vehicle id="LE2LE4_160" type="SUMO_DEFAULT_TYPE" route="LE2LE4" depart="242" />
    <vehicle id="LE3LE4_161" type="SUMO_DEFAULT_TYPE" route="LE3LE4" depart="243" />
    <vehicle id="LE2LE3_162" type="SUMO_DEFAULT_TYPE" route="LE2LE3" depart="244" />
    <vehicle id="LE2LE1_163" type="SUMO_DEFAULT_TYPE" route="LE2LE1" depart="247" />
    <vehicle id="LE4LE3_164" type="SUMO_DEFAULT_TYPE" route="LE4LE3" depart="248" />
    <vehicle id="LE1LE4_165" type="SUMO_DEFAULT_TYPE" route="LE1LE4" depart="249" />
    <vehicle id="LE4LE1_166" type="SUMO_DEFAULT_TYPE" route="LE4LE1" depart="250" />
    <vehicle id="LE3LE2_167" type="SUMO_DEFAULT_TYPE" route="LE3LE2" depart="251" />
    <vehicle id="LE4LE1_168" type="SUMO_DEFAULT_TYPE" route="LE4LE1" depart="252" />
    <vehicle id="LE3LE2_169" type="SUMO_DEFAULT_TYPE" route="LE3LE2" depart="253" />
    <vehicle id="LE4LE2_170" type="SUMO_DEFAULT_TYPE" route="LE4LE2" depart="253" />
    <vehicle id="LE4LE1_171" type="SUMO_DEFAULT_TYPE" route="LE4LE1" depart="260" />
    <vehicle id="LE1LE4_172" type="SUMO_DEFAULT_TYPE" route="LE1LE4" depart="261" />
    <vehicle id="LE4LE1_173" type="SUMO_DEFAULT_TYPE" route="LE4LE1" depart="261" />
    <vehicle id="LE1LE4_174" type="SUMO_DEFAULT_TYPE" route="LE1LE4" depart="264" />
    <vehicle id="LE2LE1_175" type="SUMO_DEFAULT_TYPE" route="LE2LE1" depart="265" />
    <vehicle id="LE1LE2_176" type="SUMO_DEFAULT_TYPE" route="LE1LE2" depart="267" />
    <vehicle id="LE2LE1_177" type="SUMO_DEFAULT_TYPE" route="LE2LE1" depart="267" />
    <vehicle id="LE3LE2_178" type="SUMO_DEFAULT_TYPE" route="LE3LE2" depart="267" />
    <vehicle id="LE3LE1_179" type="SUMO_DEFAULT_TYPE" route="LE3LE1" depart="269" />
    <vehicle id="LE2LE3_180" type="SUMO_DEFAULT_TYPE" route="LE2LE3" depart="271" />
    <vehicle id="LE4LE2_181" type="SUMO_DEFAULT_TYPE" route="LE4LE2" depart="274" />
    <vehicle id="LE1LE3_182" type="SUMO_DEFAULT_TYPE" route="LE1LE3" depart="276" />
    <vehicle id="LE1LE4_183" type="SUMO_DEFAULT_TYPE" route="LE1LE4" depart="277" />
    <vehicle id="LE2LE4_184" type="SUMO_DEFAULT_TYPE" route="LE2LE4" depart="277" />
    <vehicle id="LE2LE4_185" type="SUMO_DEFAULT_TYPE" route="LE2LE4" depart="280" />
    <vehicle id="LE4LE1_186" type="SUMO_DEFAULT_TYPE" route="LE4LE1" depart="280" />
    <vehicle id="LE1LE3_187" type="SUMO_DEFAULT_TYPE" route="LE1LE3" depart="281" />
    <vehicle id="LE2LE4_188" type="SUMO_DEFAULT_TYPE" route="LE2LE4" depart="283" />
    <vehicle id="LE4LE2_189" type="SUMO_DEFAULT_TYPE" route="LE4LE2" depart="283" />
    <vehicle id="LE2LE1_190" type="SUMO_DEFAULT_TYPE" route="LE2LE1" depart="285" />
    <vehicle id="LE4LE2_191" type="SUMO_DEFAULT_TYPE" route="LE4LE2" depart="285" />
    <vehicle id="LE3LE2_192" type="SUMO_DEFAULT_TYPE" route="LE3LE2" depart="287" />
    <vehicle id="LE2LE4_193" type="SUMO_DEFAULT_TYPE" route="LE2LE4" depart="288" />
    <vehicle id="LE1LE3_194" type="SUMO_DEFAULT_TYPE" route="LE1LE3" depart="289" />
    <vehicle id="LE4LE3_195" type="SUMO_DEFAULT_TYPE" route="LE4LE3" depart="290" />
    <vehicle id="LE4LE1_196" type="SUMO_DEFAULT_TYPE" route="LE4LE1" depart="291" />
    <vehicle id="LE1LE3_197" type="SUMO_DEFAULT_TYPE" route="LE1LE3" depart="293" />
    <vehicle id="LE4LE3_198" type="SUMO_DEFAULT_TYPE" route="LE4LE3" depart="293" />
    <vehicle id="LE1LE2_199" type="SUMO_DEFAULT_TYPE" route="LE1LE2" depart="302" />
    <vehicle id="LE1LE2_200" type="SUMO_DEFAULT_TYPE" route="LE1LE2" depart="303" />
    <vehicle id="LE3LE2_201" type="SUMO_DEFAULT_TYPE" route="LE3LE2" depart="304" />
    <vehicle id="LE2LE3_202" type="SUMO_DEFAULT_TYPE" route="LE2LE3" depart="309" />
    <vehicle id="LE4LE3_203" type="SUMO_DEFAULT_TYPE" route="LE4LE3" depart="310" />
    <vehicle id="LE3LE2_204" type="SUMO_DEFAULT_TYPE" route="LE3LE2" depart="311" />
    <vehicle id="LE3LE4_205" type="SUMO_DEFAULT_TYPE" route="LE3LE4" depart="311" />
    <vehicle id="LE4LE2_206" type="SUMO_DEFAULT_TYPE" route="LE4LE2" depart="313" />
    <vehicle id="LE4LE3_207" type="SUMO_DEFAULT_TYPE" route="LE4LE3" depart="314" />
    <vehicle id="LE4LE1_208" type="SUMO_DEFAULT_TYPE" route="LE4LE1" depart="316" />
    <vehicle id="LE4LE1_209" type="SUMO_DEFAULT_TYPE" route="LE4LE1" depart="318" />
    <vehicle id="LE4LE2_210" type="SUMO_DEFAULT_TYPE" route="LE4LE2" depart="318" />
    <vehicle id="LE2LE3_211" type="SUMO_DEFAULT_TYPE" route="LE2LE3" depart="320" />
    <vehicle id="LE2LE1_212" type="SUMO_DEFAULT_TYPE" route="LE2LE1" depart="322" />
    <vehicle id="LE2LE4_213" type="SUMO_DEFAULT_TYPE" route="LE2LE4" depart="322" />
    <vehicle id="LE3LE1_214" type="SUMO_DEFAULT_TYPE" route="LE3LE1" depart="325" />
    <vehicle id="LE1LE2_215" type="SUMO_DEFAULT_TYPE" route="LE1LE2" depart="326" />
    <vehicle id="LE2LE4_216" type="SUMO_DEFAULT_TYPE" route="LE2LE4" depart="329" />
    <vehicle id="LE3LE1_217" type="SUMO_DEFAULT_TYPE" route="LE3LE1" depart="329" />
    <vehicle id="LE4LE2_218" type="SUMO_DEFAULT_TYPE" route="LE4LE2" depart="329" />
    <vehicle id="LE3LE1_219" type="SUMO_DEFAULT_TYPE" route="LE3LE1" depart="330" />
    <vehicle id="LE4LE2_220" type="SUMO_DEFAULT_TYPE" route="LE4LE2" depart="330" />
    <vehicle id="LE4LE2_221" type="SUMO_DEFAULT_TYPE" route="LE4LE2" depart="332" />
    <vehicle id="LE1LE3_222" type="SUMO_DEFAULT_TYPE" route="LE1LE3" depart="333" />
    <vehicle id="LE1LE4_223" type="SUMO_DEFAULT_TYPE" route="LE1LE4" depart="334" />
    <vehicle id="LE1LE3_224" type="SUMO_DEFAULT_TYPE" route="LE1LE3" depart="336" />
    <vehicle id="LE2LE1_225" type="SUMO_DEFAULT_TYPE" route="LE2LE1" depart="339" />
    <vehicle id="LE3LE4_226" type="SUMO_DEFAULT_TYPE" route="LE3LE4" depart="339" />
    <vehicle id="LE4LE2_227" type="SUMO_DEFAULT_TYPE" route="LE4LE2" depart="339" />
    <vehicle id="LE4LE3_228" type="SUMO_DEFAULT_TYPE" route="LE4LE3" depart="339" />
    <vehicle id="LE1LE4_229" type="SUMO_DEFAULT_TYPE" route="LE1LE4" depart="341" />
    <vehicle id="LE3LE2_230" type="SUMO_DEFAULT_TYPE" route="LE3LE2" depart="341" />
    <vehicle id="LE4LE1_231" type="SUMO_DEFAULT_TYPE" route="LE4LE1" depart="341" />
    <vehicle id="LE4LE1_232" type="SUMO_DEFAULT_TYPE" route="LE4LE1" depart="343" />
    <vehicle id="LE1LE4_233" type="SUMO_DEFAULT_TYPE" route="LE1LE4" depart="345" />
    <vehicle id="LE1LE2_234" type="SUMO_DEFAULT_TYPE" route="LE1LE2" depart="346" />
    <vehicle id="LE3LE2_235" type="SUMO_DEFAULT_TYPE" route="LE3LE2" depart="348" />
    <vehicle id="LE3LE4_236" type="SUMO_DEFAULT_TYPE" route="LE3LE4" depart="349" />
    <vehicle id="LE3LE4_237" type="SUMO_DEFAULT_TYPE" route="LE3LE4" depart="350" />
    <vehicle id="LE1LE2_238" type="SUMO_DEFAULT_TYPE" route="LE1LE2" depart="355" />
    <vehicle id="LE2LE1_239" type="SUMO_DEFAULT_TYPE" route="LE2LE1" depart="358" />
    <vehicle id="LE4LE3_240" type="SUMO_DEFAULT_TYPE" route="LE4LE3" depart="358" />
    <vehicle id="LE1LE4_241" type="SUMO_DEFAULT_TYPE" route="LE1LE4" depart="359" />
    <vehicle id="LE2LE3_242" type="SUMO_DEFAULT_TYPE" route="LE2LE3" depart="360" />
    <vehicle id="LE3LE1_243" type="SUMO_DEFAULT_TYPE" route="LE3LE1" depart="362" />
    <vehicle id="LE4LE3_244" type="SUMO_DEFAULT_TYPE" route="LE4LE3" depart="362" />
    <vehicle id="LE2LE1_245" type="SUMO_DEFAULT_TYPE" route="LE2LE1" depart="363" />
    <vehicle id="LE3LE2_246" type="SUMO_DEFAULT_TYPE" route="LE3LE2" depart="363" />
    <vehicle id="LE4LE3_247" type="SUMO_DEFAULT_TYPE" route="LE4LE3" depart="365" />
    <vehicle id="LE1LE2_248" type="SUMO_DEFAULT_TYPE" route="LE1LE2" depart="366" />
    <vehicle id="LE3LE2_249" type="SUMO_DEFAULT_TYPE" route="LE3LE2" depart="367" />
    <vehicle id="LE4LE1_250" type="SUMO_DEFAULT_TYPE" route="LE4LE1" depart="367" />
    <vehicle id="LE4LE1_251" type="SUMO_DEFAULT_TYPE" route="LE4LE1" depart="368" />
    <vehicle id="LE3LE2_252" type="SUMO_DEFAULT_TYPE" route="LE3LE2" depart="369" />
    <vehicle id="LE4LE3_253" type="SUMO_DEFAULT_TYPE" route="LE4LE3" depart="370" />
    <vehicle id="LE1LE2_254" type="SUMO_DEFAULT_TYPE" route="LE1LE2" depart="371" />
    <vehicle id="LE4LE1_255" type="SUMO_DEFAULT_TYPE" route="LE4LE1" depart="374" />
    <vehicle id="LE1LE3_256" type="SUMO_DEFAULT_TYPE" route="LE1LE3" depart="375" />
    <vehicle id="LE4LE3_257" type="SUMO_DEFAULT_TYPE" route="LE4LE3" depart="376" />
    <vehicle id="LE4LE3_258" type="SUMO_DEFAULT_TYPE" route="LE4LE3" depart="378" />
    <vehicle id="LE2LE4_259" type="SUMO_DEFAULT_TYPE" route="LE2LE4" depart="383" />
    <vehicle id="LE1LE3_260" type="SUMO_DEFAULT_TYPE" route="LE1LE3" depart="384" />
    <vehicle id="LE4LE3_261" type="SUMO_DEFAULT_TYPE" route="LE4LE3" depart="385" />
    <vehicle id="LE4LE2_262" type="SUMO_DEFAULT_TYPE" route="LE4LE2" depart="386" />
    <vehicle id="LE1LE4_263" type="SUMO_DEFAULT_TYPE" route="LE1LE4" depart="387" />
    <vehicle id="LE3LE2_264" type="SUMO_DEFAULT_TYPE" route="LE3LE2" depart="387" />
    <vehicle id="LE3LE2_265" type="SUMO_DEFAULT_TYPE" route="LE3LE2" depart="388" />
    <vehicle id="LE4LE1_266" type="SUMO_DEFAULT_TYPE" route="LE4LE1" depart="388" />
    <vehicle id="LE4LE1_267" type="SUMO_DEFAULT_TYPE" route="LE4LE1" depart="389" />
    <vehicle id="LE3LE2_268" type="SUMO_DEFAULT_TYPE" route="LE3LE2" depart="390" />
    <vehicle id="LE1LE4_269" type="SUMO_DEFAULT_TYPE" route="LE1LE4" depart="391" />
    <vehicle id="LE4LE1_270" type="SUMO_DEFAULT_TYPE" route="LE4LE1" depart="391" />
    <vehicle id="LE1LE4_271" type="SUMO_DEFAULT_TYPE" route="LE1LE4" depart="392" />
    <vehicle id="LE3LE1_272" type="SUMO_DEFAULT_TYPE" route="LE3LE1" depart="392" />
    <vehicle id="LE2LE3_273" type="SUMO_DEFAULT_TYPE" route="LE2LE3" depart="393" />
    <vehicle id="LE3LE2_274" type="SUMO_DEFAULT_TYPE" route="LE3LE2" depart="393" />
    <vehicle id="LE1LE4_275" type="SUMO_DEFAULT_TYPE" route="LE1LE4" depart="394" />
    <vehicle id="LE3LE4_276" type="SUMO_DEFAULT_TYPE" route="LE3LE4" depart="394" />
    <vehicle id="LE4LE2_277" type="SUMO_DEFAULT_TYPE" route="LE4LE2" depart="395" />
    <vehicle id="LE2LE1_278" type="SUMO_DEFAULT_TYPE" route="LE2LE1" depart="397" />
    <vehicle id="LE4LE1_279" type="SUMO_DEFAULT_TYPE" route="LE4LE1" depart="397" />
    <vehicle id="LE1LE2_280" type="SUMO_DEFAULT_TYPE" route="LE1LE2" depart="403" />
    <vehicle id="LE1LE4_281" type="SUMO_DEFAULT_TYPE" route="LE1LE4" depart="403" />
    <vehicle id="LE3LE4_282" type="SUMO_DEFAULT_TYPE" route="LE3LE4" depart="403" />
    <vehicle id="LE3LE1_283" type="SUMO_DEFAULT_TYPE" route="LE3LE1" depart="405" />
    <vehicle id="LE1LE4_284" type="SUMO_DEFAULT_TYPE" route="LE1LE4" depart="406" />
    <vehicle id="LE4LE2_285" type="SUMO_DEFAULT_TYPE" route="LE4LE2" depart="406" />
    <vehicle id="LE2LE4_286" type="SUMO_DEFAULT_TYPE" route="LE2LE4" depart="411" />
    <vehicle id="LE4LE3_287" type="SUMO_DEFAULT_TYPE" route="LE4LE3" depart="411" />
    <vehicle id="LE3LE1_288" type="SUMO_DEFAULT_TYPE" route="LE3LE1" depart="412" />
    <vehicle id="LE4LE1_289" type="SUMO_DEFAULT_TYPE" route="LE4LE1" depart="412" />
    <vehicle id="LE2LE4_290" type="SUMO_DEFAULT_TYPE" route="LE2LE4" depart="417" />
    <vehicle id="LE3LE1_291" type="SUMO_DEFAULT_TYPE" route="LE3LE1" depart="417" />
    <vehicle id="LE2LE3_292" type="SUMO_DEFAULT_TYPE" route="LE2LE3" depart="418" />
    <vehicle id="LE4LE3_293" type="SUMO_DEFAULT_TYPE" route="LE4LE3" depart="418" />
    <vehicle id="LE2LE3_294" type="SUMO_DEFAULT_TYPE" route="LE2LE3" depart="419" />
    <vehicle id="LE3LE4_295" type="SUMO_DEFAULT_TYPE" route="LE3LE4" depart="421" />
    <vehicle id="LE3LE2_296" type="SUMO_DEFAULT_TYPE" route="LE3LE2" depart="422" />
    <vehicle id="LE3LE4_297" type="SUMO_DEFAULT_TYPE" route="LE3LE4" depart="423" />
    <vehicle id="LE1LE4_298" type="SUMO_DEFAULT_TYPE" route="LE1LE4" depart="425" />
    <vehicle id="LE3LE4_299" type="SUMO_DEFAULT_TYPE" route="LE3LE4" depart="425" />
    <vehicle id="LE4LE3_300" type="SUMO_DEFAULT_TYPE" route="LE4LE3" depart="426" />
    <vehicle id="LE4LE1_301" type="SUMO_DEFAULT_TYPE" route="LE4LE1" depart="427" />
    <vehicle id="LE2LE3_302" type="SUMO_DEFAULT_TYPE" route="LE2LE3" depart="431" />
    <vehicle id="LE4LE2_303" type="SUMO_DEFAULT_TYPE" route="LE4LE2" depart="433" />
    <vehicle id="LE3LE4_304" type="SUMO_DEFAULT_TYPE" route="LE3LE4" depart="435" />
    <vehicle id="LE1LE3_305" type="SUMO_DEFAULT_TYPE" route="LE1LE3" depart="437" />
    <vehicle id="LE3LE4_306" type="SUMO_DEFAULT_TYPE" route="LE3LE4" depart="437" />
    <vehicle id="LE3LE4_307" type="SUMO_DEFAULT_TYPE" route="LE3LE4" depart="439" />
    <vehicle id="LE4LE2_308" type="SUMO_DEFAULT_TYPE" route="LE4LE2" depart="442" />
    <vehicle id="LE3LE4_309" type="SUMO_DEFAULT_TYPE" route="LE3LE4" depart="443" />
    <vehicle id="LE3LE2_310" type="SUMO_DEFAULT_TYPE" route="LE3LE2" depart="444" />
    <vehicle id="LE2LE1_311" type="SUMO_DEFAULT_TYPE" route="LE2LE1" depart="446" />
    <vehicle id="LE3LE2_312" type="SUMO_DEFAULT_TYPE" route="LE3LE2" depart="449" />
    <vehicle id="LE1LE3_313" type="SUMO_DEFAULT_TYPE" route="LE1LE3" depart="450" />
    <vehicle id="LE4LE2_314" type="SUMO_DEFAULT_TYPE" route="LE4LE2" depart="450" />
    <vehicle id="LE1LE2_315" type="SUMO_DEFAULT_TYPE" route="LE1LE2" depart="452" />
    <vehicle id="LE3LE2_316" type="SUMO_DEFAULT_TYPE" route="LE3LE2" depart="452" />
    <vehicle id="LE4LE3_317" type="SUMO_DEFAULT_TYPE" route="LE4LE3" depart="454" />
    <vehicle id="LE2LE3_318" type="SUMO_DEFAULT_TYPE" route="LE2LE3" depart="458" />
    <vehicle id="LE4LE3_319" type="SUMO_DEFAULT_TYPE" route="LE4LE3" depart="459" />
    <vehicle id="LE4LE1_320" type="SUMO_DEFAULT_TYPE" route="LE4LE1" depart="461" />
    <vehicle id="LE4LE2_321" type="SUMO_DEFAULT_TYPE" route="LE4LE2" depart="461" />
    <vehicle id="LE1LE2_322" type="SUMO_DEFAULT_TYPE" route="LE1LE2" depart="462" />
    <vehicle id="LE4LE2_323" type="SUMO_DEFAULT_TYPE" route="LE4LE2" depart="462" />
    <vehicle id="LE3LE2_324" type="SUMO_DEFAULT_TYPE" route="LE3LE2" depart="463" />
    <vehicle id="LE3LE4_325" type="SUMO_DEFAULT_TYPE" route="LE3LE4" depart="466" />
    <vehicle id="LE4LE2_326" type="SUMO_DEFAULT_TYPE" route="LE4LE2" depart="466" />
    <vehicle id="LE1LE3_327" type="SUMO_DEFAULT_TYPE" route="LE1LE3" depart="468" />
    <vehicle id="LE3LE4_328" type="SUMO_DEFAULT_TYPE" route="LE3LE4" depart="468" />
    <vehicle id="LE4LE2_329" type="SUMO_DEFAULT_TYPE" route="LE4LE2" depart="470" />
    <vehicle id="LE4LE1_330" type="SUMO_DEFAULT_TYPE" route="LE4LE1" depart="473" />
    <vehicle id="LE4LE3_331" type="SUMO_DEFAULT_TYPE" route="LE4LE3" depart="474" />
    <vehicle id="LE2LE1_332" type="SUMO_DEFAULT_TYPE" route="LE2LE1" depart="476" />
    <vehicle id="LE3LE4_333" type="SUMO_DEFAULT_TYPE" route="LE3LE4" depart="476" />
    <vehicle id="LE2LE3_334" type="SUMO_DEFAULT_TYPE" route="LE2LE3" depart="477" />
    <vehicle id="LE4LE2_335" type="SUMO_DEFAULT_TYPE" route="LE4LE2" depart="477" />
    <vehicle id="LE2LE3_336" type="SUMO_DEFAULT_TYPE" route="LE2LE3" depart="478" />
    <vehicle id="LE2LE4_337" type="SUMO_DEFAULT_TYPE" route="LE2LE4" depart="479" />
    <vehicle id="LE3LE1_338" type="SUMO_DEFAULT_TYPE" route="LE3LE1" depart="482" />
    <vehicle id="LE3LE4_339" type="SUMO_DEFAULT_TYPE" route="LE3LE4" depart="483" />
    <vehicle id="LE4LE3_340" type="SUMO_DEFAULT_TYPE" route="LE4LE3" depart="483" />
    <vehicle id="LE3LE1_341" type="SUMO_DEFAULT_TYPE" route="LE3LE1" depart="485" />
    <vehicle id="LE4LE2_342" type="SUMO_DEFAULT_TYPE" route="LE4LE2" depart="488" />
    <vehicle id="LE4LE3_343" type="SUMO_DEFAULT_TYPE" route="LE4LE3" depart="489" />